REMARK  Name = ../refined-set-2016/3vjc/3vjc_pocket.pdb
REMARK  289 active torsions:
REMARK  status: ('A' for Active; 'I' for Inactive)
REMARK    1  A    between atoms: _1  and  _3
REMARK    2  A    between atoms: _3  and  _4
REMARK    3  A    between atoms: _3  and  _6
REMARK    4  A    between atoms: _6  and  _7
REMARK    5  A    between atoms: _10  and  _12
REMARK    6  A    between atoms: _12  and  _13
REMARK    7  A    between atoms: _12  and  _15
REMARK    8  A    between atoms: _15  and  _16
REMARK    9  A    between atoms: _21  and  _23
REMARK   10  A    between atoms: _23  and  _24
REMARK   11  A    between atoms: _23  and  _26
REMARK   12  A    between atoms: _26  and  _27
REMARK   13  A    between atoms: _27  and  _28
REMARK   14  A    between atoms: _33  and  _35
REMARK   15  A    between atoms: _35  and  _36
REMARK   16  A    between atoms: _35  and  _38
REMARK   17  A    between atoms: _38  and  _39
REMARK   18  A    between atoms: _42  and  _44
REMARK   19  A    between atoms: _44  and  _45
REMARK   20  A    between atoms: _44  and  _47
REMARK   21  A    between atoms: _47  and  _48
REMARK   22  A    between atoms: _50  and  _52
REMARK   23  A    between atoms: _52  and  _53
REMARK   24  A    between atoms: _52  and  _55
REMARK   25  A    between atoms: _55  and  _56
REMARK   26  A    between atoms: _56  and  _57
REMARK   27  A    between atoms: _57  and  _58
REMARK   28  A    between atoms: _67  and  _69
REMARK   29  A    between atoms: _69  and  _70
REMARK   30  A    between atoms: _69  and  _72
REMARK   31  A    between atoms: _72  and  _73
REMARK   32  A    between atoms: _75  and  _77
REMARK   33  A    between atoms: _77  and  _78
REMARK   34  A    between atoms: _77  and  _80
REMARK   35  A    between atoms: _80  and  _81
REMARK   36  A    between atoms: _87  and  _89
REMARK   37  A    between atoms: _89  and  _90
REMARK   38  A    between atoms: _93  and  _95
REMARK   39  A    between atoms: _95  and  _96
REMARK   40  A    between atoms: _99  and  _101
REMARK   41  A    between atoms: _101  and  _102
REMARK   42  A    between atoms: _101  and  _104
REMARK   43  A    between atoms: _107  and  _109
REMARK   44  A    between atoms: _109  and  _110
REMARK   45  A    between atoms: _109  and  _112
REMARK   46  A    between atoms: _112  and  _113
REMARK   47  A    between atoms: _116  and  _118
REMARK   48  A    between atoms: _118  and  _119
REMARK   49  A    between atoms: _118  and  _121
REMARK   50  A    between atoms: _121  and  _122
REMARK   51  A    between atoms: _125  and  _127
REMARK   52  A    between atoms: _127  and  _128
REMARK   53  A    between atoms: _131  and  _133
REMARK   54  A    between atoms: _133  and  _134
REMARK   55  A    between atoms: _133  and  _136
REMARK   56  A    between atoms: _139  and  _141
REMARK   57  A    between atoms: _141  and  _142
REMARK   58  A    between atoms: _141  and  _144
REMARK   59  A    between atoms: _146  and  _148
REMARK   60  A    between atoms: _148  and  _149
REMARK   61  A    between atoms: _148  and  _151
REMARK   62  A    between atoms: _151  and  _152
REMARK   63  A    between atoms: _155  and  _157
REMARK   64  A    between atoms: _157  and  _158
REMARK   65  A    between atoms: _157  and  _160
REMARK   66  A    between atoms: _160  and  _161
REMARK   67  A    between atoms: _167  and  _169
REMARK   68  A    between atoms: _169  and  _170
REMARK   69  A    between atoms: _169  and  _172
REMARK   70  A    between atoms: _172  and  _173
REMARK   71  A    between atoms: _178  and  _179
REMARK   72  A    between atoms: _181  and  _183
REMARK   73  A    between atoms: _183  and  _184
REMARK   74  A    between atoms: _183  and  _186
REMARK   75  A    between atoms: _186  and  _187
REMARK   76  A    between atoms: _190  and  _192
REMARK   77  A    between atoms: _192  and  _193
REMARK   78  A    between atoms: _192  and  _195
REMARK   79  A    between atoms: _198  and  _200
REMARK   80  A    between atoms: _200  and  _201
REMARK   81  A    between atoms: _200  and  _203
REMARK   82  A    between atoms: _203  and  _204
REMARK   83  A    between atoms: _207  and  _209
REMARK   84  A    between atoms: _209  and  _210
REMARK   85  A    between atoms: _209  and  _212
REMARK   86  A    between atoms: _212  and  _213
REMARK   87  A    between atoms: _213  and  _214
REMARK   88  A    between atoms: _214  and  _215
REMARK   89  A    between atoms: _224  and  _226
REMARK   90  A    between atoms: _226  and  _227
REMARK   91  A    between atoms: _230  and  _232
REMARK   92  A    between atoms: _232  and  _233
REMARK   93  A    between atoms: _232  and  _235
REMARK   94  A    between atoms: _235  and  _236
REMARK   95  A    between atoms: _239  and  _241
REMARK   96  A    between atoms: _241  and  _242
REMARK   97  A    between atoms: _241  and  _244
REMARK   98  A    between atoms: _244  and  _245
REMARK   99  A    between atoms: _248  and  _250
REMARK  100  A    between atoms: _250  and  _251
REMARK  101  A    between atoms: _250  and  _253
REMARK  102  A    between atoms: _253  and  _254
REMARK  103  A    between atoms: _257  and  _259
REMARK  104  A    between atoms: _259  and  _260
REMARK  105  A    between atoms: _259  and  _262
REMARK  106  A    between atoms: _262  and  _263
REMARK  107  A    between atoms: _263  and  _264
REMARK  108  A    between atoms: _267  and  _269
REMARK  109  A    between atoms: _269  and  _270
REMARK  110  A    between atoms: _269  and  _272
REMARK  111  A    between atoms: _272  and  _273
REMARK  112  A    between atoms: _276  and  _278
REMARK  113  A    between atoms: _278  and  _279
REMARK  114  A    between atoms: _278  and  _281
REMARK  115  A    between atoms: _281  and  _282
REMARK  116  A    between atoms: _282  and  _283
REMARK  117  A    between atoms: _283  and  _284
REMARK  118  A    between atoms: _284  and  _285
REMARK  119  A    between atoms: _289  and  _291
REMARK  120  A    between atoms: _291  and  _292
REMARK  121  A    between atoms: _291  and  _294
REMARK  122  A    between atoms: _294  and  _295
REMARK  123  A    between atoms: _298  and  _300
REMARK  124  A    between atoms: _300  and  _301
REMARK  125  A    between atoms: _300  and  _303
REMARK  126  A    between atoms: _303  and  _304
REMARK  127  A    between atoms: _307  and  _309
REMARK  128  A    between atoms: _309  and  _310
REMARK  129  A    between atoms: _309  and  _312
REMARK  130  A    between atoms: _312  and  _313
REMARK  131  A    between atoms: _313  and  _314
REMARK  132  A    between atoms: _316  and  _318
REMARK  133  A    between atoms: _318  and  _319
REMARK  134  A    between atoms: _318  and  _321
REMARK  135  A    between atoms: _321  and  _322
REMARK  136  A    between atoms: _322  and  _323
REMARK  137  A    between atoms: _325  and  _327
REMARK  138  A    between atoms: _327  and  _328
REMARK  139  A    between atoms: _327  and  _330
REMARK  140  A    between atoms: _330  and  _331
REMARK  141  A    between atoms: _336  and  _337
REMARK  142  A    between atoms: _339  and  _341
REMARK  143  A    between atoms: _341  and  _342
REMARK  144  A    between atoms: _341  and  _344
REMARK  145  A    between atoms: _344  and  _345
REMARK  146  A    between atoms: _350  and  _351
REMARK  147  A    between atoms: _353  and  _355
REMARK  148  A    between atoms: _355  and  _356
REMARK  149  A    between atoms: _355  and  _358
REMARK  150  A    between atoms: _361  and  _363
REMARK  151  A    between atoms: _363  and  _364
REMARK  152  A    between atoms: _367  and  _369
REMARK  153  A    between atoms: _369  and  _370
REMARK  154  A    between atoms: _372  and  _374
REMARK  155  A    between atoms: _374  and  _375
REMARK  156  A    between atoms: _374  and  _377
REMARK  157  A    between atoms: _377  and  _378
REMARK  158  A    between atoms: _381  and  _383
REMARK  159  A    between atoms: _383  and  _384
REMARK  160  A    between atoms: _383  and  _386
REMARK  161  A    between atoms: _389  and  _391
REMARK  162  A    between atoms: _391  and  _392
REMARK  163  A    between atoms: _394  and  _396
REMARK  164  A    between atoms: _396  and  _397
REMARK  165  A    between atoms: _399  and  _401
REMARK  166  A    between atoms: _401  and  _402
REMARK  167  A    between atoms: _401  and  _404
REMARK  168  A    between atoms: _404  and  _405
REMARK  169  A    between atoms: _408  and  _410
REMARK  170  A    between atoms: _410  and  _411
REMARK  171  A    between atoms: _410  and  _413
REMARK  172  A    between atoms: _413  and  _414
REMARK  173  A    between atoms: _417  and  _419
REMARK  174  A    between atoms: _419  and  _420
REMARK  175  A    between atoms: _419  and  _422
REMARK  176  A    between atoms: _422  and  _423
REMARK  177  A    between atoms: _429  and  _431
REMARK  178  A    between atoms: _431  and  _432
REMARK  179  A    between atoms: _431  and  _434
REMARK  180  A    between atoms: _434  and  _435
REMARK  181  A    between atoms: _435  and  _436
REMARK  182  A    between atoms: _438  and  _440
REMARK  183  A    between atoms: _440  and  _441
REMARK  184  A    between atoms: _440  and  _443
REMARK  185  A    between atoms: _443  and  _444
REMARK  186  A    between atoms: _450  and  _452
REMARK  187  A    between atoms: _452  and  _453
REMARK  188  A    between atoms: _452  and  _455
REMARK  189  A    between atoms: _455  and  _456
REMARK  190  A    between atoms: _459  and  _461
REMARK  191  A    between atoms: _461  and  _462
REMARK  192  A    between atoms: _461  and  _464
REMARK  193  A    between atoms: _464  and  _465
REMARK  194  A    between atoms: _465  and  _466
REMARK  195  A    between atoms: _471  and  _473
REMARK  196  A    between atoms: _473  and  _474
REMARK  197  A    between atoms: _473  and  _476
REMARK  198  A    between atoms: _476  and  _477
REMARK  199  A    between atoms: _477  and  _478
REMARK  200  A    between atoms: _478  and  _479
REMARK  201  A    between atoms: _479  and  _480
REMARK  202  A    between atoms: _484  and  _486
REMARK  203  A    between atoms: _486  and  _487
REMARK  204  A    between atoms: _486  and  _489
REMARK  205  A    between atoms: _489  and  _490
REMARK  206  A    between atoms: _493  and  _495
REMARK  207  A    between atoms: _495  and  _496
REMARK  208  A    between atoms: _495  and  _498
REMARK  209  A    between atoms: _498  and  _499
REMARK  210  A    between atoms: _504  and  _506
REMARK  211  A    between atoms: _506  and  _507
REMARK  212  A    between atoms: _506  and  _509
REMARK  213  A    between atoms: _509  and  _510
REMARK  214  A    between atoms: _513  and  _515
REMARK  215  A    between atoms: _515  and  _516
REMARK  216  A    between atoms: _515  and  _518
REMARK  217  A    between atoms: _518  and  _519
REMARK  218  A    between atoms: _519  and  _520
REMARK  219  A    between atoms: _520  and  _521
REMARK  220  A    between atoms: _530  and  _532
REMARK  221  A    between atoms: _532  and  _533
REMARK  222  A    between atoms: _532  and  _535
REMARK  223  A    between atoms: _535  and  _536
REMARK  224  A    between atoms: _539  and  _541
REMARK  225  A    between atoms: _541  and  _542
REMARK  226  A    between atoms: _541  and  _544
REMARK  227  A    between atoms: _544  and  _545
REMARK  228  A    between atoms: _545  and  _546
REMARK  229  A    between atoms: _549  and  _551
REMARK  230  A    between atoms: _551  and  _552
REMARK  231  A    between atoms: _551  and  _554
REMARK  232  A    between atoms: _554  and  _555
REMARK  233  A    between atoms: _561  and  _563
REMARK  234  A    between atoms: _563  and  _564
REMARK  235  A    between atoms: _563  and  _566
REMARK  236  A    between atoms: _566  and  _567
REMARK  237  A    between atoms: _571  and  _572
REMARK  238  A    between atoms: _577  and  _579
REMARK  239  A    between atoms: _579  and  _580
REMARK  240  A    between atoms: _579  and  _582
REMARK  241  A    between atoms: _582  and  _583
REMARK  242  A    between atoms: _583  and  _584
REMARK  243  A    between atoms: _589  and  _591
REMARK  244  A    between atoms: _591  and  _592
REMARK  245  A    between atoms: _591  and  _594
REMARK  246  A    between atoms: _597  and  _599
REMARK  247  A    between atoms: _599  and  _600
REMARK  248  A    between atoms: _599  and  _602
REMARK  249  A    between atoms: _602  and  _603
REMARK  250  A    between atoms: _603  and  _604
REMARK  251  A    between atoms: _606  and  _608
REMARK  252  A    between atoms: _608  and  _609
REMARK  253  A    between atoms: _612  and  _614
REMARK  254  A    between atoms: _614  and  _615
REMARK  255  A    between atoms: _614  and  _617
REMARK  256  A    between atoms: _617  and  _618
REMARK  257  A    between atoms: _621  and  _623
REMARK  258  A    between atoms: _623  and  _624
REMARK  259  A    between atoms: _627  and  _629
REMARK  260  A    between atoms: _629  and  _630
REMARK  261  A    between atoms: _629  and  _632
REMARK  262  A    between atoms: _632  and  _633
REMARK  263  A    between atoms: _636  and  _638
REMARK  264  A    between atoms: _638  and  _639
REMARK  265  A    between atoms: _638  and  _641
REMARK  266  A    between atoms: _641  and  _642
REMARK  267  A    between atoms: _645  and  _647
REMARK  268  A    between atoms: _647  and  _648
REMARK  269  A    between atoms: _647  and  _650
REMARK  270  A    between atoms: _650  and  _651
REMARK  271  A    between atoms: _654  and  _656
REMARK  272  A    between atoms: _656  and  _657
REMARK  273  A    between atoms: _656  and  _659
REMARK  274  A    between atoms: _659  and  _660
REMARK  275  A    between atoms: _660  and  _661
REMARK  276  A    between atoms: _666  and  _668
REMARK  277  A    between atoms: _668  and  _669
REMARK  278  A    between atoms: _672  and  _674
REMARK  279  A    between atoms: _674  and  _675
REMARK  280  A    between atoms: _674  and  _677
REMARK  281  A    between atoms: _680  and  _682
REMARK  282  A    between atoms: _682  and  _683
REMARK  283  A    between atoms: _682  and  _685
REMARK  284  A    between atoms: _685  and  _686
REMARK  285  A    between atoms: _689  and  _691
REMARK  286  A    between atoms: _691  and  _692
REMARK  287  A    between atoms: _691  and  _694
REMARK  288  A    between atoms: _694  and  _695
REMARK  289  A    between atoms: _695  and  _696
REMARK                            x       y       z     vdW  Elec       q    Type
REMARK                         _______ _______ _______ _____ _____    ______ ____
ROOT
ATOM      1  CA  ARG A   6      25.094  58.685  54.307  0.00  0.00    +0.149 C 
ENDROOT
BRANCH   1   2
ATOM      2  C   ARG A   6      24.805  57.546  53.338  0.00  0.00    +0.241 C 
ATOM      3  O   ARG A   6      25.675  56.707  53.102  0.00  0.00    -0.273 OA
ATOM      4  N   SER A   7      23.606  57.501  52.762  0.00  0.00    -0.295 N 
ATOM      5  H   SER A   7      22.953  58.306  52.850  0.00  0.00    +0.150 HD
BRANCH   4   6
ATOM      6  CA  SER A   7      23.213  56.315  52.006  0.00  0.00    +0.178 C 
BRANCH   6   7
ATOM      7  C   SER A   7      22.975  56.502  50.508  0.00  0.00    +0.243 C 
ATOM      8  N   PHE A   8      22.808  57.726  50.006  0.00  0.00    -0.297 N 
ATOM      9  H   PHE A   8      22.780  58.541  50.651  0.00  0.00    +0.150 HD
ATOM     10  O   SER A   7      22.857  55.487  49.837  0.00  0.00    -0.273 OA
BRANCH   8  11
ATOM     11  CA  PHE A   8      22.663  57.945  48.570  0.00  0.00    +0.153 C 
BRANCH  11  12
ATOM     12  C   PHE A   8      23.937  58.427  47.874  0.00  0.00    +0.241 C 
ATOM     13  N   ALA A   9      24.847  59.068  48.600  0.00  0.00    -0.297 N 
ATOM     14  H   ALA A   9      24.739  59.108  49.634  0.00  0.00    +0.150 HD
ATOM     15  O   PHE A   8      24.075  58.247  46.665  0.00  0.00    -0.273 OA
BRANCH  13  16
ATOM     16  CA  ALA A   9      25.998  59.718  47.974  0.00  0.00    +0.149 C 
ATOM     17  CB  ALA A   9      26.914  60.394  49.018  0.00  0.00    +0.031 C 
BRANCH  16  18
ATOM     18  C   ALA A   9      26.824  58.793  47.079  0.00  0.00    +0.241 C 
ATOM     19  N   ALA A  10      27.102  57.589  47.567  0.00  0.00    -0.297 N 
ATOM     20  H   ALA A  10      26.672  57.291  48.466  0.00  0.00    +0.150 HD
ATOM     21  O   ALA A   9      27.211  59.175  45.967  0.00  0.00    -0.273 OA
BRANCH  19  22
ATOM     22  CA  ALA A  10      27.998  56.677  46.866  0.00  0.00    +0.149 C 
ATOM     23  CB  ALA A  10      28.411  55.488  47.765  0.00  0.00    +0.031 C 
BRANCH  22  24
ATOM     24  C   ALA A  10      27.345  56.183  45.575  0.00  0.00    +0.241 C 
ATOM     25  N   VAL A  11      26.055  55.844  45.617  0.00  0.00    -0.297 N 
ATOM     26  H   VAL A  11      25.534  55.881  46.517  0.00  0.00    +0.150 HD
ATOM     27  O   ALA A  10      28.009  56.127  44.541  0.00  0.00    -0.273 OA
BRANCH  25  28
ATOM     28  CA  VAL A  11      25.375  55.420  44.390  0.00  0.00    +0.149 C 
BRANCH  28  29
ATOM     29  C   VAL A  11      25.125  56.573  43.421  0.00  0.00    +0.241 C 
ATOM     30  N   ILE A  12      24.944  57.789  43.941  0.00  0.00    -0.298 N 
ATOM     31  H   ILE A  12      24.830  57.907  44.968  0.00  0.00    +0.150 HD
ATOM     32  O   VAL A  11      25.076  56.345  42.200  0.00  0.00    -0.273 OA
BRANCH  30  33
ATOM     33  CA  ILE A  12      24.907  58.962  43.053  0.00  0.00    +0.137 C 
BRANCH  33  34
ATOM     34  CB  ILE A  12      24.444  60.245  43.794  0.00  0.00    +0.026 C 
ATOM     35  CG2 ILE A  12      24.677  61.500  42.960  0.00  0.00    +0.002 C 
BRANCH  34  36
ATOM     36  CG1 ILE A  12      22.970  60.103  44.210  0.00  0.00    +0.002 C 
ATOM     37  CD1 ILE A  12      22.460  61.188  45.212  0.00  0.00    +0.000 C 
ENDBRANCH  34  36
ENDBRANCH  33  34
BRANCH  33  38
ATOM     38  C   ILE A  12      26.257  59.178  42.361  0.00  0.00    +0.227 C 
ATOM     39  O   ILE A  12      26.325  59.404  41.143  0.00  0.00    -0.286 OA
ENDBRANCH  33  38
ENDBRANCH  30  33
ENDBRANCH  28  29
BRANCH  28  40
ATOM     40  CB  VAL A  11      24.076  54.582  44.604  0.00  0.00    +0.027 C 
ATOM     41  CG2 VAL A  11      23.053  55.288  45.514  0.00  0.00    +0.002 C 
ATOM     42  CG1 VAL A  11      24.431  53.159  45.102  0.00  0.00    +0.002 C 
ENDBRANCH  28  40
ENDBRANCH  25  28
ENDBRANCH  22  24
ENDBRANCH  19  22
ENDBRANCH  16  18
ENDBRANCH  13  16
ENDBRANCH  11  12
BRANCH  11  43
ATOM     43  CB  PHE A   8      21.545  58.958  48.259  0.00  0.00    +0.055 C 
BRANCH  43  44
ATOM     44  CG  PHE A   8      20.161  58.385  48.296  0.00  0.00    -0.020 A 
ATOM     45  CD2 PHE A   8      19.265  58.792  49.279  0.00  0.00    -0.004 A 
ATOM     46  CE2 PHE A   8      17.963  58.306  49.299  0.00  0.00    -0.000 A 
ATOM     47  CZ  PHE A   8      17.557  57.389  48.334  0.00  0.00    -0.000 A 
ATOM     48  CE1 PHE A   8      18.439  56.974  47.346  0.00  0.00    -0.000 A 
ATOM     49  CD1 PHE A   8      19.735  57.487  47.322  0.00  0.00    -0.004 A 
ENDBRANCH  43  44
ENDBRANCH  11  43
ENDBRANCH   8  11
ENDBRANCH   6   7
BRANCH   6  50
ATOM     50  CB  SER A   7      21.973  55.662  52.621  0.00  0.00    +0.166 C 
BRANCH  50  51
ATOM     51  OG  SER A   7      22.230  55.255  53.958  0.00  0.00    -0.380 OA
ATOM     52  H   SER A   7      22.478  56.045  54.500  0.00  0.00    +0.211 HD
ENDBRANCH  50  51
ENDBRANCH   6  50
ENDBRANCH   4   6
ENDBRANCH   1   2
BRANCH   1  54
ATOM     53  C   SER A   5      24.759  60.728  53.048  0.00  0.00    +0.243 C 
ATOM     54  N   ARG A   6      24.333  59.896  53.992  0.00  0.00    -0.297 N 
ATOM     55  H   ARG A   6      23.456  60.105  54.509  0.00  0.00    +0.150 HD
ATOM     56  O   SER A   5      25.846  60.587  52.483  0.00  0.00    -0.273 OA
BRANCH  53  57
ATOM     57  CA  SER A   5      23.837  61.875  52.640  0.00  0.00    +0.178 C 
BRANCH  57  60
ATOM     58  C   THR A   4      23.928  63.848  54.052  0.00  0.00    +0.243 C 
ATOM     59  O   THR A   4      23.142  63.342  54.840  0.00  0.00    -0.273 OA
ATOM     60  N   SER A   5      24.390  63.175  53.009  0.00  0.00    -0.295 N 
ATOM     61  H   SER A   5      25.162  63.580  52.442  0.00  0.00    +0.150 HD
BRANCH  58  62
ATOM     62  CA  THR A   4      24.436  65.276  54.262  0.00  0.00    +0.176 C 
BRANCH  62  65
ATOM     63  C   GLN A   3      26.745  65.440  54.976  0.00  0.00    +0.241 C 
ATOM     64  O   GLN A   3      26.446  65.120  56.123  0.00  0.00    -0.273 OA
ATOM     65  N   THR A   4      25.860  65.450  53.981  0.00  0.00    -0.295 N 
ATOM     66  H   THR A   4      26.183  65.582  53.001  0.00  0.00    +0.150 HD
BRANCH  63  67
ATOM     67  CA  GLN A   3      28.190  65.814  54.645  0.00  0.00    +0.149 C 
BRANCH  67  70
ATOM     68  C   ASN A   2      28.582  64.074  52.981  0.00  0.00    +0.241 C 
ATOM     69  O   ASN A   2      28.480  63.183  53.831  0.00  0.00    -0.273 OA
ATOM     70  N   GLN A   3      28.528  65.371  53.288  0.00  0.00    -0.297 N 
ATOM     71  H   GLN A   3      28.729  66.079  52.554  0.00  0.00    +0.150 HD
BRANCH  68  72
ATOM     72  CA  ASN A   2      28.769  63.701  51.510  0.00  0.00    +0.158 C 
BRANCH  72  75
ATOM     73  C   LEU A   1      26.910  64.683  50.251  0.00  0.00    +0.238 C 
ATOM     74  O   LEU A   1      26.057  63.988  50.810  0.00  0.00    -0.274 OA
ATOM     75  N   ASN A   2      28.217  64.582  50.483  0.00  0.00    -0.297 N 
ATOM     76  H   ASN A   2      28.871  65.153  49.911  0.00  0.00    +0.150 HD
BRANCH  73  77
ATOM     77  CA  LEU A   1      26.507  65.702  49.190  0.00  0.00    +0.145 C 
BRANCH  77  78
ATOM     78  N   LEU A   1      27.199  66.984  49.392  0.00  0.00    -0.238 NA
ATOM     79  H   LEU A   1      27.758  67.410  48.626  0.00  0.00    +0.142 HD
ENDBRANCH  77  78
BRANCH  77  80
ATOM     80  CB  LEU A   1      26.772  65.107  47.798  0.00  0.00    +0.026 C 
BRANCH  80  81
ATOM     81  CG  LEU A   1      26.126  63.764  47.437  0.00  0.00    +0.002 C 
ATOM     82  CD2 LEU A   1      24.577  63.882  47.322  0.00  0.00    +0.000 C 
ATOM     83  CD1 LEU A   1      26.715  63.203  46.137  0.00  0.00    +0.000 C 
ENDBRANCH  80  81
ENDBRANCH  77  80
ENDBRANCH  73  77
ENDBRANCH  72  75
BRANCH  72  84
ATOM     84  CB  ASN A   2      30.217  63.355  51.145  0.00  0.00    +0.114 C 
BRANCH  84  85
ATOM     85  CG  ASN A   2      30.264  62.424  49.935  0.00  0.00    +0.222 C 
ATOM     86  OD1 ASN A   2      29.994  61.234  50.073  0.00  0.00    -0.275 OA
ATOM     87  ND2 ASN A   2      30.541  62.962  48.748  0.00  0.00    -0.329 N 
ATOM     88 HD21 ASN A   2      30.765  63.975  48.676  0.00  0.00    +0.145 HD
ATOM     89 HD22 ASN A   2      30.534  62.369  47.894  0.00  0.00    +0.145 HD
ENDBRANCH  84  85
ENDBRANCH  72  84
ENDBRANCH  68  72
ENDBRANCH  67  70
BRANCH  67  90
ATOM     90  CB  GLN A   3      28.362  67.323  54.837  0.00  0.00    +0.039 C 
BRANCH  90  91
ATOM     91  CG  GLN A   3      29.800  67.824  54.695  0.00  0.00    +0.087 C 
BRANCH  91  92
ATOM     92  CD  GLN A   3      29.874  69.326  54.816  0.00  0.00    +0.219 C 
ATOM     93  NE2 GLN A   3      31.066  69.840  55.120  0.00  0.00    -0.329 N 
ATOM     94 HE21 GLN A   3      31.172  70.867  55.249  0.00  0.00    +0.145 HD
ATOM     95 HE22 GLN A   3      31.890  69.214  55.228  0.00  0.00    +0.145 HD
ATOM     96  OE1 GLN A   3      28.860  70.021  54.675  0.00  0.00    -0.275 OA
ENDBRANCH  91  92
ENDBRANCH  90  91
ENDBRANCH  67  90
ENDBRANCH  63  67
ENDBRANCH  62  65
BRANCH  62  97
ATOM     97  CB  THR A   4      23.556  66.311  53.505  0.00  0.00    +0.137 C 
ATOM     98  CG2 THR A   4      24.033  67.720  53.838  0.00  0.00    +0.034 C 
BRANCH  97  99
ATOM     99  OG1 THR A   4      23.693  66.134  52.091  0.00  0.00    -0.382 OA
ATOM    100  HG1 THR A   4      24.640  66.263  51.834  0.00  0.00    +0.210 HD
ENDBRANCH  97  99
ENDBRANCH  62  97
ENDBRANCH  58  62
ENDBRANCH  57  60
BRANCH  57 101
ATOM    101  CB  SER A   5      23.625  61.829  51.125  0.00  0.00    +0.166 C 
BRANCH 101 102
ATOM    102  OG  SER A   5      23.079  60.573  50.723  0.00  0.00    -0.380 OA
ATOM    103  H   SER A   5      22.207  60.435  51.171  0.00  0.00    +0.211 HD
ENDBRANCH 101 102
ENDBRANCH  57 101
ENDBRANCH  53  57
ENDBRANCH   1  54
BRANCH   1 104
ATOM    104  CB  ARG A   6      24.826  58.210  55.740  0.00  0.00    +0.033 C 
BRANCH 104 105
ATOM    105  CG  ARG A   6      25.321  59.172  56.824  0.00  0.00    +0.045 C 
BRANCH 105 106
ATOM    106  CD  ARG A   6      24.720  58.779  58.170  0.00  0.00    +0.174 C 
BRANCH 106 107
ATOM    107  NE  ARG A   6      23.275  59.000  58.209  0.00  0.00    -0.265 N 
ATOM    108  CZ  ARG A   6      22.477  58.688  59.231  0.00  0.00    +0.342 C 
ATOM    109  NH2 ARG A   6      22.959  58.110  60.323  0.00  0.00    -0.292 N 
ATOM    110 HH21 ARG A   6      22.322  57.874  61.111  0.00  0.00    +0.255 HD
ATOM    111 HH22 ARG A   6      23.974  57.893  60.392  0.00  0.00    +0.255 HD
ATOM    112  NH1 ARG A   6      21.175  58.938  59.159  0.00  0.00    -0.292 N 
ATOM    113 HH11 ARG A   6      20.554  58.694  59.957  0.00  0.00    +0.255 HD
ATOM    114 HH12 ARG A   6      20.776  59.378  58.305  0.00  0.00    +0.255 HD
ATOM    115  HE  ARG A   6      22.835  59.435  57.373  0.00  0.00    +0.259 HD
ENDBRANCH 106 107
ENDBRANCH 105 106
ENDBRANCH 104 105
ENDBRANCH   1 104
TORSDOF 46
REMARK  Name = ../refined-set-2016/3vjc/3vjc_pocket.pdb
REMARK  289 active torsions:
REMARK  status: ('A' for Active; 'I' for Inactive)
REMARK    1  A    between atoms: _1  and  _3
REMARK    2  A    between atoms: _3  and  _4
REMARK    3  A    between atoms: _3  and  _6
REMARK    4  A    between atoms: _6  and  _7
REMARK    5  A    between atoms: _10  and  _12
REMARK    6  A    between atoms: _12  and  _13
REMARK    7  A    between atoms: _12  and  _15
REMARK    8  A    between atoms: _15  and  _16
REMARK    9  A    between atoms: _21  and  _23
REMARK   10  A    between atoms: _23  and  _24
REMARK   11  A    between atoms: _23  and  _26
REMARK   12  A    between atoms: _26  and  _27
REMARK   13  A    between atoms: _27  and  _28
REMARK   14  A    between atoms: _33  and  _35
REMARK   15  A    between atoms: _35  and  _36
REMARK   16  A    between atoms: _35  and  _38
REMARK   17  A    between atoms: _38  and  _39
REMARK   18  A    between atoms: _42  and  _44
REMARK   19  A    between atoms: _44  and  _45
REMARK   20  A    between atoms: _44  and  _47
REMARK   21  A    between atoms: _47  and  _48
REMARK   22  A    between atoms: _50  and  _52
REMARK   23  A    between atoms: _52  and  _53
REMARK   24  A    between atoms: _52  and  _55
REMARK   25  A    between atoms: _55  and  _56
REMARK   26  A    between atoms: _56  and  _57
REMARK   27  A    between atoms: _57  and  _58
REMARK   28  A    between atoms: _67  and  _69
REMARK   29  A    between atoms: _69  and  _70
REMARK   30  A    between atoms: _69  and  _72
REMARK   31  A    between atoms: _72  and  _73
REMARK   32  A    between atoms: _75  and  _77
REMARK   33  A    between atoms: _77  and  _78
REMARK   34  A    between atoms: _77  and  _80
REMARK   35  A    between atoms: _80  and  _81
REMARK   36  A    between atoms: _87  and  _89
REMARK   37  A    between atoms: _89  and  _90
REMARK   38  A    between atoms: _93  and  _95
REMARK   39  A    between atoms: _95  and  _96
REMARK   40  A    between atoms: _99  and  _101
REMARK   41  A    between atoms: _101  and  _102
REMARK   42  A    between atoms: _101  and  _104
REMARK   43  A    between atoms: _107  and  _109
REMARK   44  A    between atoms: _109  and  _110
REMARK   45  A    between atoms: _109  and  _112
REMARK   46  A    between atoms: _112  and  _113
REMARK   47  A    between atoms: _116  and  _118
REMARK   48  A    between atoms: _118  and  _119
REMARK   49  A    between atoms: _118  and  _121
REMARK   50  A    between atoms: _121  and  _122
REMARK   51  A    between atoms: _125  and  _127
REMARK   52  A    between atoms: _127  and  _128
REMARK   53  A    between atoms: _131  and  _133
REMARK   54  A    between atoms: _133  and  _134
REMARK   55  A    between atoms: _133  and  _136
REMARK   56  A    between atoms: _139  and  _141
REMARK   57  A    between atoms: _141  and  _142
REMARK   58  A    between atoms: _141  and  _144
REMARK   59  A    between atoms: _146  and  _148
REMARK   60  A    between atoms: _148  and  _149
REMARK   61  A    between atoms: _148  and  _151
REMARK   62  A    between atoms: _151  and  _152
REMARK   63  A    between atoms: _155  and  _157
REMARK   64  A    between atoms: _157  and  _158
REMARK   65  A    between atoms: _157  and  _160
REMARK   66  A    between atoms: _160  and  _161
REMARK   67  A    between atoms: _167  and  _169
REMARK   68  A    between atoms: _169  and  _170
REMARK   69  A    between atoms: _169  and  _172
REMARK   70  A    between atoms: _172  and  _173
REMARK   71  A    between atoms: _178  and  _179
REMARK   72  A    between atoms: _181  and  _183
REMARK   73  A    between atoms: _183  and  _184
REMARK   74  A    between atoms: _183  and  _186
REMARK   75  A    between atoms: _186  and  _187
REMARK   76  A    between atoms: _190  and  _192
REMARK   77  A    between atoms: _192  and  _193
REMARK   78  A    between atoms: _192  and  _195
REMARK   79  A    between atoms: _198  and  _200
REMARK   80  A    between atoms: _200  and  _201
REMARK   81  A    between atoms: _200  and  _203
REMARK   82  A    between atoms: _203  and  _204
REMARK   83  A    between atoms: _207  and  _209
REMARK   84  A    between atoms: _209  and  _210
REMARK   85  A    between atoms: _209  and  _212
REMARK   86  A    between atoms: _212  and  _213
REMARK   87  A    between atoms: _213  and  _214
REMARK   88  A    between atoms: _214  and  _215
REMARK   89  A    between atoms: _224  and  _226
REMARK   90  A    between atoms: _226  and  _227
REMARK   91  A    between atoms: _230  and  _232
REMARK   92  A    between atoms: _232  and  _233
REMARK   93  A    between atoms: _232  and  _235
REMARK   94  A    between atoms: _235  and  _236
REMARK   95  A    between atoms: _239  and  _241
REMARK   96  A    between atoms: _241  and  _242
REMARK   97  A    between atoms: _241  and  _244
REMARK   98  A    between atoms: _244  and  _245
REMARK   99  A    between atoms: _248  and  _250
REMARK  100  A    between atoms: _250  and  _251
REMARK  101  A    between atoms: _250  and  _253
REMARK  102  A    between atoms: _253  and  _254
REMARK  103  A    between atoms: _257  and  _259
REMARK  104  A    between atoms: _259  and  _260
REMARK  105  A    between atoms: _259  and  _262
REMARK  106  A    between atoms: _262  and  _263
REMARK  107  A    between atoms: _263  and  _264
REMARK  108  A    between atoms: _267  and  _269
REMARK  109  A    between atoms: _269  and  _270
REMARK  110  A    between atoms: _269  and  _272
REMARK  111  A    between atoms: _272  and  _273
REMARK  112  A    between atoms: _276  and  _278
REMARK  113  A    between atoms: _278  and  _279
REMARK  114  A    between atoms: _278  and  _281
REMARK  115  A    between atoms: _281  and  _282
REMARK  116  A    between atoms: _282  and  _283
REMARK  117  A    between atoms: _283  and  _284
REMARK  118  A    between atoms: _284  and  _285
REMARK  119  A    between atoms: _289  and  _291
REMARK  120  A    between atoms: _291  and  _292
REMARK  121  A    between atoms: _291  and  _294
REMARK  122  A    between atoms: _294  and  _295
REMARK  123  A    between atoms: _298  and  _300
REMARK  124  A    between atoms: _300  and  _301
REMARK  125  A    between atoms: _300  and  _303
REMARK  126  A    between atoms: _303  and  _304
REMARK  127  A    between atoms: _307  and  _309
REMARK  128  A    between atoms: _309  and  _310
REMARK  129  A    between atoms: _309  and  _312
REMARK  130  A    between atoms: _312  and  _313
REMARK  131  A    between atoms: _313  and  _314
REMARK  132  A    between atoms: _316  and  _318
REMARK  133  A    between atoms: _318  and  _319
REMARK  134  A    between atoms: _318  and  _321
REMARK  135  A    between atoms: _321  and  _322
REMARK  136  A    between atoms: _322  and  _323
REMARK  137  A    between atoms: _325  and  _327
REMARK  138  A    between atoms: _327  and  _328
REMARK  139  A    between atoms: _327  and  _330
REMARK  140  A    between atoms: _330  and  _331
REMARK  141  A    between atoms: _336  and  _337
REMARK  142  A    between atoms: _339  and  _341
REMARK  143  A    between atoms: _341  and  _342
REMARK  144  A    between atoms: _341  and  _344
REMARK  145  A    between atoms: _344  and  _345
REMARK  146  A    between atoms: _350  and  _351
REMARK  147  A    between atoms: _353  and  _355
REMARK  148  A    between atoms: _355  and  _356
REMARK  149  A    between atoms: _355  and  _358
REMARK  150  A    between atoms: _361  and  _363
REMARK  151  A    between atoms: _363  and  _364
REMARK  152  A    between atoms: _367  and  _369
REMARK  153  A    between atoms: _369  and  _370
REMARK  154  A    between atoms: _372  and  _374
REMARK  155  A    between atoms: _374  and  _375
REMARK  156  A    between atoms: _374  and  _377
REMARK  157  A    between atoms: _377  and  _378
REMARK  158  A    between atoms: _381  and  _383
REMARK  159  A    between atoms: _383  and  _384
REMARK  160  A    between atoms: _383  and  _386
REMARK  161  A    between atoms: _389  and  _391
REMARK  162  A    between atoms: _391  and  _392
REMARK  163  A    between atoms: _394  and  _396
REMARK  164  A    between atoms: _396  and  _397
REMARK  165  A    between atoms: _399  and  _401
REMARK  166  A    between atoms: _401  and  _402
REMARK  167  A    between atoms: _401  and  _404
REMARK  168  A    between atoms: _404  and  _405
REMARK  169  A    between atoms: _408  and  _410
REMARK  170  A    between atoms: _410  and  _411
REMARK  171  A    between atoms: _410  and  _413
REMARK  172  A    between atoms: _413  and  _414
REMARK  173  A    between atoms: _417  and  _419
REMARK  174  A    between atoms: _419  and  _420
REMARK  175  A    between atoms: _419  and  _422
REMARK  176  A    between atoms: _422  and  _423
REMARK  177  A    between atoms: _429  and  _431
REMARK  178  A    between atoms: _431  and  _432
REMARK  179  A    between atoms: _431  and  _434
REMARK  180  A    between atoms: _434  and  _435
REMARK  181  A    between atoms: _435  and  _436
REMARK  182  A    between atoms: _438  and  _440
REMARK  183  A    between atoms: _440  and  _441
REMARK  184  A    between atoms: _440  and  _443
REMARK  185  A    between atoms: _443  and  _444
REMARK  186  A    between atoms: _450  and  _452
REMARK  187  A    between atoms: _452  and  _453
REMARK  188  A    between atoms: _452  and  _455
REMARK  189  A    between atoms: _455  and  _456
REMARK  190  A    between atoms: _459  and  _461
REMARK  191  A    between atoms: _461  and  _462
REMARK  192  A    between atoms: _461  and  _464
REMARK  193  A    between atoms: _464  and  _465
REMARK  194  A    between atoms: _465  and  _466
REMARK  195  A    between atoms: _471  and  _473
REMARK  196  A    between atoms: _473  and  _474
REMARK  197  A    between atoms: _473  and  _476
REMARK  198  A    between atoms: _476  and  _477
REMARK  199  A    between atoms: _477  and  _478
REMARK  200  A    between atoms: _478  and  _479
REMARK  201  A    between atoms: _479  and  _480
REMARK  202  A    between atoms: _484  and  _486
REMARK  203  A    between atoms: _486  and  _487
REMARK  204  A    between atoms: _486  and  _489
REMARK  205  A    between atoms: _489  and  _490
REMARK  206  A    between atoms: _493  and  _495
REMARK  207  A    between atoms: _495  and  _496
REMARK  208  A    between atoms: _495  and  _498
REMARK  209  A    between atoms: _498  and  _499
REMARK  210  A    between atoms: _504  and  _506
REMARK  211  A    between atoms: _506  and  _507
REMARK  212  A    between atoms: _506  and  _509
REMARK  213  A    between atoms: _509  and  _510
REMARK  214  A    between atoms: _513  and  _515
REMARK  215  A    between atoms: _515  and  _516
REMARK  216  A    between atoms: _515  and  _518
REMARK  217  A    between atoms: _518  and  _519
REMARK  218  A    between atoms: _519  and  _520
REMARK  219  A    between atoms: _520  and  _521
REMARK  220  A    between atoms: _530  and  _532
REMARK  221  A    between atoms: _532  and  _533
REMARK  222  A    between atoms: _532  and  _535
REMARK  223  A    between atoms: _535  and  _536
REMARK  224  A    between atoms: _539  and  _541
REMARK  225  A    between atoms: _541  and  _542
REMARK  226  A    between atoms: _541  and  _544
REMARK  227  A    between atoms: _544  and  _545
REMARK  228  A    between atoms: _545  and  _546
REMARK  229  A    between atoms: _549  and  _551
REMARK  230  A    between atoms: _551  and  _552
REMARK  231  A    between atoms: _551  and  _554
REMARK  232  A    between atoms: _554  and  _555
REMARK  233  A    between atoms: _561  and  _563
REMARK  234  A    between atoms: _563  and  _564
REMARK  235  A    between atoms: _563  and  _566
REMARK  236  A    between atoms: _566  and  _567
REMARK  237  A    between atoms: _571  and  _572
REMARK  238  A    between atoms: _577  and  _579
REMARK  239  A    between atoms: _579  and  _580
REMARK  240  A    between atoms: _579  and  _582
REMARK  241  A    between atoms: _582  and  _583
REMARK  242  A    between atoms: _583  and  _584
REMARK  243  A    between atoms: _589  and  _591
REMARK  244  A    between atoms: _591  and  _592
REMARK  245  A    between atoms: _591  and  _594
REMARK  246  A    between atoms: _597  and  _599
REMARK  247  A    between atoms: _599  and  _600
REMARK  248  A    between atoms: _599  and  _602
REMARK  249  A    between atoms: _602  and  _603
REMARK  250  A    between atoms: _603  and  _604
REMARK  251  A    between atoms: _606  and  _608
REMARK  252  A    between atoms: _608  and  _609
REMARK  253  A    between atoms: _612  and  _614
REMARK  254  A    between atoms: _614  and  _615
REMARK  255  A    between atoms: _614  and  _617
REMARK  256  A    between atoms: _617  and  _618
REMARK  257  A    between atoms: _621  and  _623
REMARK  258  A    between atoms: _623  and  _624
REMARK  259  A    between atoms: _627  and  _629
REMARK  260  A    between atoms: _629  and  _630
REMARK  261  A    between atoms: _629  and  _632
REMARK  262  A    between atoms: _632  and  _633
REMARK  263  A    between atoms: _636  and  _638
REMARK  264  A    between atoms: _638  and  _639
REMARK  265  A    between atoms: _638  and  _641
REMARK  266  A    between atoms: _641  and  _642
REMARK  267  A    between atoms: _645  and  _647
REMARK  268  A    between atoms: _647  and  _648
REMARK  269  A    between atoms: _647  and  _650
REMARK  270  A    between atoms: _650  and  _651
REMARK  271  A    between atoms: _654  and  _656
REMARK  272  A    between atoms: _656  and  _657
REMARK  273  A    between atoms: _656  and  _659
REMARK  274  A    between atoms: _659  and  _660
REMARK  275  A    between atoms: _660  and  _661
REMARK  276  A    between atoms: _666  and  _668
REMARK  277  A    between atoms: _668  and  _669
REMARK  278  A    between atoms: _672  and  _674
REMARK  279  A    between atoms: _674  and  _675
REMARK  280  A    between atoms: _674  and  _677
REMARK  281  A    between atoms: _680  and  _682
REMARK  282  A    between atoms: _682  and  _683
REMARK  283  A    between atoms: _682  and  _685
REMARK  284  A    between atoms: _685  and  _686
REMARK  285  A    between atoms: _689  and  _691
REMARK  286  A    between atoms: _691  and  _692
REMARK  287  A    between atoms: _691  and  _694
REMARK  288  A    between atoms: _694  and  _695
REMARK  289  A    between atoms: _695  and  _696
REMARK                            x       y       z     vdW  Elec       q    Type
REMARK                         _______ _______ _______ _____ _____    ______ ____
ROOT
ATOM      1  CA  LEU A   1      26.135  57.234  38.099  0.00  0.00    +0.133 C 
ENDROOT
BRANCH   1   2
ATOM      2  N   LEU A   1      26.965  57.082  39.306  0.00  0.00    -0.239 NA
ATOM      3  H   LEU A   1      26.885  57.772  40.080  0.00  0.00    +0.142 HD
ENDBRANCH   1   2
BRANCH   1   4
ATOM      4  C   LEU A   1      26.960  57.628  36.873  0.00  0.00    +0.224 C 
ATOM      5  O   LEU A   1      27.870  58.458  36.983  0.00  0.00    -0.287 OA
ENDBRANCH   1   4
BRANCH   1   6
ATOM      6  CB  LEU A   1      24.995  58.256  38.301  0.00  0.00    +0.025 C 
BRANCH   6   7
ATOM      7  CG  LEU A   1      23.821  57.841  39.188  0.00  0.00    +0.002 C 
ATOM      8  CD2 LEU A   1      23.007  59.081  39.614  0.00  0.00    +0.000 C 
ATOM      9  CD1 LEU A   1      22.931  56.794  38.438  0.00  0.00    +0.000 C 
ENDBRANCH   6   7
ENDBRANCH   1   6
TORSDOF 4
REMARK  Name = ../refined-set-2016/3vjc/3vjc_pocket.pdb
REMARK  289 active torsions:
REMARK  status: ('A' for Active; 'I' for Inactive)
REMARK    1  A    between atoms: _1  and  _3
REMARK    2  A    between atoms: _3  and  _4
REMARK    3  A    between atoms: _3  and  _6
REMARK    4  A    between atoms: _6  and  _7
REMARK    5  A    between atoms: _10  and  _12
REMARK    6  A    between atoms: _12  and  _13
REMARK    7  A    between atoms: _12  and  _15
REMARK    8  A    between atoms: _15  and  _16
REMARK    9  A    between atoms: _21  and  _23
REMARK   10  A    between atoms: _23  and  _24
REMARK   11  A    between atoms: _23  and  _26
REMARK   12  A    between atoms: _26  and  _27
REMARK   13  A    between atoms: _27  and  _28
REMARK   14  A    between atoms: _33  and  _35
REMARK   15  A    between atoms: _35  and  _36
REMARK   16  A    between atoms: _35  and  _38
REMARK   17  A    between atoms: _38  and  _39
REMARK   18  A    between atoms: _42  and  _44
REMARK   19  A    between atoms: _44  and  _45
REMARK   20  A    between atoms: _44  and  _47
REMARK   21  A    between atoms: _47  and  _48
REMARK   22  A    between atoms: _50  and  _52
REMARK   23  A    between atoms: _52  and  _53
REMARK   24  A    between atoms: _52  and  _55
REMARK   25  A    between atoms: _55  and  _56
REMARK   26  A    between atoms: _56  and  _57
REMARK   27  A    between atoms: _57  and  _58
REMARK   28  A    between atoms: _67  and  _69
REMARK   29  A    between atoms: _69  and  _70
REMARK   30  A    between atoms: _69  and  _72
REMARK   31  A    between atoms: _72  and  _73
REMARK   32  A    between atoms: _75  and  _77
REMARK   33  A    between atoms: _77  and  _78
REMARK   34  A    between atoms: _77  and  _80
REMARK   35  A    between atoms: _80  and  _81
REMARK   36  A    between atoms: _87  and  _89
REMARK   37  A    between atoms: _89  and  _90
REMARK   38  A    between atoms: _93  and  _95
REMARK   39  A    between atoms: _95  and  _96
REMARK   40  A    between atoms: _99  and  _101
REMARK   41  A    between atoms: _101  and  _102
REMARK   42  A    between atoms: _101  and  _104
REMARK   43  A    between atoms: _107  and  _109
REMARK   44  A    between atoms: _109  and  _110
REMARK   45  A    between atoms: _109  and  _112
REMARK   46  A    between atoms: _112  and  _113
REMARK   47  A    between atoms: _116  and  _118
REMARK   48  A    between atoms: _118  and  _119
REMARK   49  A    between atoms: _118  and  _121
REMARK   50  A    between atoms: _121  and  _122
REMARK   51  A    between atoms: _125  and  _127
REMARK   52  A    between atoms: _127  and  _128
REMARK   53  A    between atoms: _131  and  _133
REMARK   54  A    between atoms: _133  and  _134
REMARK   55  A    between atoms: _133  and  _136
REMARK   56  A    between atoms: _139  and  _141
REMARK   57  A    between atoms: _141  and  _142
REMARK   58  A    between atoms: _141  and  _144
REMARK   59  A    between atoms: _146  and  _148
REMARK   60  A    between atoms: _148  and  _149
REMARK   61  A    between atoms: _148  and  _151
REMARK   62  A    between atoms: _151  and  _152
REMARK   63  A    between atoms: _155  and  _157
REMARK   64  A    between atoms: _157  and  _158
REMARK   65  A    between atoms: _157  and  _160
REMARK   66  A    between atoms: _160  and  _161
REMARK   67  A    between atoms: _167  and  _169
REMARK   68  A    between atoms: _169  and  _170
REMARK   69  A    between atoms: _169  and  _172
REMARK   70  A    between atoms: _172  and  _173
REMARK   71  A    between atoms: _178  and  _179
REMARK   72  A    between atoms: _181  and  _183
REMARK   73  A    between atoms: _183  and  _184
REMARK   74  A    between atoms: _183  and  _186
REMARK   75  A    between atoms: _186  and  _187
REMARK   76  A    between atoms: _190  and  _192
REMARK   77  A    between atoms: _192  and  _193
REMARK   78  A    between atoms: _192  and  _195
REMARK   79  A    between atoms: _198  and  _200
REMARK   80  A    between atoms: _200  and  _201
REMARK   81  A    between atoms: _200  and  _203
REMARK   82  A    between atoms: _203  and  _204
REMARK   83  A    between atoms: _207  and  _209
REMARK   84  A    between atoms: _209  and  _210
REMARK   85  A    between atoms: _209  and  _212
REMARK   86  A    between atoms: _212  and  _213
REMARK   87  A    between atoms: _213  and  _214
REMARK   88  A    between atoms: _214  and  _215
REMARK   89  A    between atoms: _224  and  _226
REMARK   90  A    between atoms: _226  and  _227
REMARK   91  A    between atoms: _230  and  _232
REMARK   92  A    between atoms: _232  and  _233
REMARK   93  A    between atoms: _232  and  _235
REMARK   94  A    between atoms: _235  and  _236
REMARK   95  A    between atoms: _239  and  _241
REMARK   96  A    between atoms: _241  and  _242
REMARK   97  A    between atoms: _241  and  _244
REMARK   98  A    between atoms: _244  and  _245
REMARK   99  A    between atoms: _248  and  _250
REMARK  100  A    between atoms: _250  and  _251
REMARK  101  A    between atoms: _250  and  _253
REMARK  102  A    between atoms: _253  and  _254
REMARK  103  A    between atoms: _257  and  _259
REMARK  104  A    between atoms: _259  and  _260
REMARK  105  A    between atoms: _259  and  _262
REMARK  106  A    between atoms: _262  and  _263
REMARK  107  A    between atoms: _263  and  _264
REMARK  108  A    between atoms: _267  and  _269
REMARK  109  A    between atoms: _269  and  _270
REMARK  110  A    between atoms: _269  and  _272
REMARK  111  A    between atoms: _272  and  _273
REMARK  112  A    between atoms: _276  and  _278
REMARK  113  A    between atoms: _278  and  _279
REMARK  114  A    between atoms: _278  and  _281
REMARK  115  A    between atoms: _281  and  _282
REMARK  116  A    between atoms: _282  and  _283
REMARK  117  A    between atoms: _283  and  _284
REMARK  118  A    between atoms: _284  and  _285
REMARK  119  A    between atoms: _289  and  _291
REMARK  120  A    between atoms: _291  and  _292
REMARK  121  A    between atoms: _291  and  _294
REMARK  122  A    between atoms: _294  and  _295
REMARK  123  A    between atoms: _298  and  _300
REMARK  124  A    between atoms: _300  and  _301
REMARK  125  A    between atoms: _300  and  _303
REMARK  126  A    between atoms: _303  and  _304
REMARK  127  A    between atoms: _307  and  _309
REMARK  128  A    between atoms: _309  and  _310
REMARK  129  A    between atoms: _309  and  _312
REMARK  130  A    between atoms: _312  and  _313
REMARK  131  A    between atoms: _313  and  _314
REMARK  132  A    between atoms: _316  and  _318
REMARK  133  A    between atoms: _318  and  _319
REMARK  134  A    between atoms: _318  and  _321
REMARK  135  A    between atoms: _321  and  _322
REMARK  136  A    between atoms: _322  and  _323
REMARK  137  A    between atoms: _325  and  _327
REMARK  138  A    between atoms: _327  and  _328
REMARK  139  A    between atoms: _327  and  _330
REMARK  140  A    between atoms: _330  and  _331
REMARK  141  A    between atoms: _336  and  _337
REMARK  142  A    between atoms: _339  and  _341
REMARK  143  A    between atoms: _341  and  _342
REMARK  144  A    between atoms: _341  and  _344
REMARK  145  A    between atoms: _344  and  _345
REMARK  146  A    between atoms: _350  and  _351
REMARK  147  A    between atoms: _353  and  _355
REMARK  148  A    between atoms: _355  and  _356
REMARK  149  A    between atoms: _355  and  _358
REMARK  150  A    between atoms: _361  and  _363
REMARK  151  A    between atoms: _363  and  _364
REMARK  152  A    between atoms: _367  and  _369
REMARK  153  A    between atoms: _369  and  _370
REMARK  154  A    between atoms: _372  and  _374
REMARK  155  A    between atoms: _374  and  _375
REMARK  156  A    between atoms: _374  and  _377
REMARK  157  A    between atoms: _377  and  _378
REMARK  158  A    between atoms: _381  and  _383
REMARK  159  A    between atoms: _383  and  _384
REMARK  160  A    between atoms: _383  and  _386
REMARK  161  A    between atoms: _389  and  _391
REMARK  162  A    between atoms: _391  and  _392
REMARK  163  A    between atoms: _394  and  _396
REMARK  164  A    between atoms: _396  and  _397
REMARK  165  A    between atoms: _399  and  _401
REMARK  166  A    between atoms: _401  and  _402
REMARK  167  A    between atoms: _401  and  _404
REMARK  168  A    between atoms: _404  and  _405
REMARK  169  A    between atoms: _408  and  _410
REMARK  170  A    between atoms: _410  and  _411
REMARK  171  A    between atoms: _410  and  _413
REMARK  172  A    between atoms: _413  and  _414
REMARK  173  A    between atoms: _417  and  _419
REMARK  174  A    between atoms: _419  and  _420
REMARK  175  A    between atoms: _419  and  _422
REMARK  176  A    between atoms: _422  and  _423
REMARK  177  A    between atoms: _429  and  _431
REMARK  178  A    between atoms: _431  and  _432
REMARK  179  A    between atoms: _431  and  _434
REMARK  180  A    between atoms: _434  and  _435
REMARK  181  A    between atoms: _435  and  _436
REMARK  182  A    between atoms: _438  and  _440
REMARK  183  A    between atoms: _440  and  _441
REMARK  184  A    between atoms: _440  and  _443
REMARK  185  A    between atoms: _443  and  _444
REMARK  186  A    between atoms: _450  and  _452
REMARK  187  A    between atoms: _452  and  _453
REMARK  188  A    between atoms: _452  and  _455
REMARK  189  A    between atoms: _455  and  _456
REMARK  190  A    between atoms: _459  and  _461
REMARK  191  A    between atoms: _461  and  _462
REMARK  192  A    between atoms: _461  and  _464
REMARK  193  A    between atoms: _464  and  _465
REMARK  194  A    between atoms: _465  and  _466
REMARK  195  A    between atoms: _471  and  _473
REMARK  196  A    between atoms: _473  and  _474
REMARK  197  A    between atoms: _473  and  _476
REMARK  198  A    between atoms: _476  and  _477
REMARK  199  A    between atoms: _477  and  _478
REMARK  200  A    between atoms: _478  and  _479
REMARK  201  A    between atoms: _479  and  _480
REMARK  202  A    between atoms: _484  and  _486
REMARK  203  A    between atoms: _486  and  _487
REMARK  204  A    between atoms: _486  and  _489
REMARK  205  A    between atoms: _489  and  _490
REMARK  206  A    between atoms: _493  and  _495
REMARK  207  A    between atoms: _495  and  _496
REMARK  208  A    between atoms: _495  and  _498
REMARK  209  A    between atoms: _498  and  _499
REMARK  210  A    between atoms: _504  and  _506
REMARK  211  A    between atoms: _506  and  _507
REMARK  212  A    between atoms: _506  and  _509
REMARK  213  A    between atoms: _509  and  _510
REMARK  214  A    between atoms: _513  and  _515
REMARK  215  A    between atoms: _515  and  _516
REMARK  216  A    between atoms: _515  and  _518
REMARK  217  A    between atoms: _518  and  _519
REMARK  218  A    between atoms: _519  and  _520
REMARK  219  A    between atoms: _520  and  _521
REMARK  220  A    between atoms: _530  and  _532
REMARK  221  A    between atoms: _532  and  _533
REMARK  222  A    between atoms: _532  and  _535
REMARK  223  A    between atoms: _535  and  _536
REMARK  224  A    between atoms: _539  and  _541
REMARK  225  A    between atoms: _541  and  _542
REMARK  226  A    between atoms: _541  and  _544
REMARK  227  A    between atoms: _544  and  _545
REMARK  228  A    between atoms: _545  and  _546
REMARK  229  A    between atoms: _549  and  _551
REMARK  230  A    between atoms: _551  and  _552
REMARK  231  A    between atoms: _551  and  _554
REMARK  232  A    between atoms: _554  and  _555
REMARK  233  A    between atoms: _561  and  _563
REMARK  234  A    between atoms: _563  and  _564
REMARK  235  A    between atoms: _563  and  _566
REMARK  236  A    between atoms: _566  and  _567
REMARK  237  A    between atoms: _571  and  _572
REMARK  238  A    between atoms: _577  and  _579
REMARK  239  A    between atoms: _579  and  _580
REMARK  240  A    between atoms: _579  and  _582
REMARK  241  A    between atoms: _582  and  _583
REMARK  242  A    between atoms: _583  and  _584
REMARK  243  A    between atoms: _589  and  _591
REMARK  244  A    between atoms: _591  and  _592
REMARK  245  A    between atoms: _591  and  _594
REMARK  246  A    between atoms: _597  and  _599
REMARK  247  A    between atoms: _599  and  _600
REMARK  248  A    between atoms: _599  and  _602
REMARK  249  A    between atoms: _602  and  _603
REMARK  250  A    between atoms: _603  and  _604
REMARK  251  A    between atoms: _606  and  _608
REMARK  252  A    between atoms: _608  and  _609
REMARK  253  A    between atoms: _612  and  _614
REMARK  254  A    between atoms: _614  and  _615
REMARK  255  A    between atoms: _614  and  _617
REMARK  256  A    between atoms: _617  and  _618
REMARK  257  A    between atoms: _621  and  _623
REMARK  258  A    between atoms: _623  and  _624
REMARK  259  A    between atoms: _627  and  _629
REMARK  260  A    between atoms: _629  and  _630
REMARK  261  A    between atoms: _629  and  _632
REMARK  262  A    between atoms: _632  and  _633
REMARK  263  A    between atoms: _636  and  _638
REMARK  264  A    between atoms: _638  and  _639
REMARK  265  A    between atoms: _638  and  _641
REMARK  266  A    between atoms: _641  and  _642
REMARK  267  A    between atoms: _645  and  _647
REMARK  268  A    between atoms: _647  and  _648
REMARK  269  A    between atoms: _647  and  _650
REMARK  270  A    between atoms: _650  and  _651
REMARK  271  A    between atoms: _654  and  _656
REMARK  272  A    between atoms: _656  and  _657
REMARK  273  A    between atoms: _656  and  _659
REMARK  274  A    between atoms: _659  and  _660
REMARK  275  A    between atoms: _660  and  _661
REMARK  276  A    between atoms: _666  and  _668
REMARK  277  A    between atoms: _668  and  _669
REMARK  278  A    between atoms: _672  and  _674
REMARK  279  A    between atoms: _674  and  _675
REMARK  280  A    between atoms: _674  and  _677
REMARK  281  A    between atoms: _680  and  _682
REMARK  282  A    between atoms: _682  and  _683
REMARK  283  A    between atoms: _682  and  _685
REMARK  284  A    between atoms: _685  and  _686
REMARK  285  A    between atoms: _689  and  _691
REMARK  286  A    between atoms: _691  and  _692
REMARK  287  A    between atoms: _691  and  _694
REMARK  288  A    between atoms: _694  and  _695
REMARK  289  A    between atoms: _695  and  _696
REMARK                            x       y       z     vdW  Elec       q    Type
REMARK                         _______ _______ _______ _____ _____    ______ ____
ROOT
ATOM      1  C   LEU A   7      20.106  70.168  47.135  0.00  0.00    +0.241 C 
ATOM      2  O   LEU A   7      19.751  70.758  48.154  0.00  0.00    -0.273 OA
ATOM      3  N   VAL A   8      19.521  70.403  45.967  0.00  0.00    -0.297 N 
ATOM      4  H   VAL A   8      19.831  69.892  45.116  0.00  0.00    +0.150 HD
ENDROOT
BRANCH   1   5
ATOM      5  CA  LEU A   7      21.230  69.123  47.159  0.00  0.00    +0.149 C 
BRANCH   5   8
ATOM      6  C   TYR A   6      19.946  67.157  46.558  0.00  0.00    +0.241 C 
ATOM      7  O   TYR A   6      19.196  67.356  47.526  0.00  0.00    -0.273 OA
ATOM      8  N   LEU A   7      20.960  67.977  46.285  0.00  0.00    -0.297 N 
ATOM      9  H   LEU A   7      21.559  67.804  45.453  0.00  0.00    +0.150 HD
BRANCH   6  10
ATOM     10  CA  TYR A   6      19.783  65.915  45.665  0.00  0.00    +0.153 C 
BRANCH  10  13
ATOM     11  C   PHE A   5      18.890  67.179  43.772  0.00  0.00    +0.241 C 
ATOM     12  O   PHE A   5      18.004  67.696  44.465  0.00  0.00    -0.273 OA
ATOM     13  N   TYR A   6      19.746  66.274  44.238  0.00  0.00    -0.297 N 
ATOM     14  H   TYR A   6      20.404  65.810  43.580  0.00  0.00    +0.150 HD
BRANCH  11  15
ATOM     15  CA  PHE A   5      19.038  67.546  42.294  0.00  0.00    +0.153 C 
BRANCH  15  18
ATOM     16  C   ILE A   4      21.160  68.685  42.592  0.00  0.00    +0.241 C 
ATOM     17  O   ILE A   4      20.667  69.410  43.447  0.00  0.00    -0.273 OA
ATOM     18  N   PHE A   5      20.445  67.772  41.937  0.00  0.00    -0.297 N 
ATOM     19  H   PHE A   5      20.883  67.219  41.173  0.00  0.00    +0.150 HD
BRANCH  16  20
ATOM     20  CA  ILE A   4      22.634  68.833  42.245  0.00  0.00    +0.149 C 
BRANCH  20  23
ATOM     21  C   CYS A   3      23.405  66.717  43.148  0.00  0.00    +0.242 C 
ATOM     22  O   CYS A   3      23.033  67.030  44.303  0.00  0.00    -0.273 OA
ATOM     23  N   ILE A   4      23.245  67.512  42.092  0.00  0.00    -0.297 N 
ATOM     24  H   ILE A   4      23.556  67.192  41.153  0.00  0.00    +0.150 HD
BRANCH  21  25
ATOM     25  CA  CYS A   3      24.107  65.391  42.864  0.00  0.00    +0.160 C 
BRANCH  25  28
ATOM     26  C   VAL A   2      22.184  64.493  41.683  0.00  0.00    +0.241 C 
ATOM     27  O   VAL A   2      21.475  64.721  42.663  0.00  0.00    -0.273 OA
ATOM     28  N   CYS A   3      23.494  64.713  41.723  0.00  0.00    -0.296 N 
ATOM     29  H   CYS A   3      24.091  64.399  40.932  0.00  0.00    +0.150 HD
BRANCH  26  30
ATOM     30  CA  VAL A   2      21.575  63.969  40.371  0.00  0.00    +0.148 C 
BRANCH  30  33
ATOM     31  C   ALA A   1      21.941  65.768  38.787  0.00  0.00    +0.238 C 
ATOM     32  O   ALA A   1      21.171  66.493  39.422  0.00  0.00    -0.274 OA
ATOM     33  N   VAL A   2      22.207  64.525  39.176  0.00  0.00    -0.297 N 
ATOM     34  H   VAL A   2      22.870  63.943  38.625  0.00  0.00    +0.150 HD
BRANCH  31  35
ATOM     35  CA  ALA A   1      22.671  66.281  37.535  0.00  0.00    +0.145 C 
ATOM     36  CB  ALA A   1      21.976  65.828  36.253  0.00  0.00    +0.028 C 
BRANCH  35  37
ATOM     37  N   ALA A   1      24.091  65.921  37.528  0.00  0.00    -0.238 NA
ATOM     38  H   ALA A   1      24.476  65.356  36.744  0.00  0.00    +0.142 HD
ENDBRANCH  35  37
ENDBRANCH  31  35
ENDBRANCH  30  33
BRANCH  30  39
ATOM     39  CB  VAL A   2      21.522  62.415  40.283  0.00  0.00    +0.027 C 
ATOM     40  CG2 VAL A   2      20.899  61.800  41.517  0.00  0.00    +0.002 C 
ATOM     41  CG1 VAL A   2      20.697  61.967  39.050  0.00  0.00    +0.002 C 
ENDBRANCH  30  39
ENDBRANCH  26  30
ENDBRANCH  25  28
BRANCH  25  42
ATOM     42  CB  CYS A   3      25.610  65.653  42.610  0.00  0.00    +0.098 C 
ATOM     43  SG  CYS A   3      26.361  66.593  43.975  0.00  0.00    -0.080 S 
ENDBRANCH  25  42
ENDBRANCH  21  25
ENDBRANCH  20  23
BRANCH  20  44
ATOM     44  CB  ILE A   4      22.804  69.740  40.986  0.00  0.00    +0.027 C 
ATOM     45  CG2 ILE A   4      21.990  71.049  41.120  0.00  0.00    +0.002 C 
BRANCH  44  46
ATOM     46  CG1 ILE A   4      24.278  70.082  40.714  0.00  0.00    +0.002 C 
ATOM     47  CD1 ILE A   4      25.106  70.486  41.942  0.00  0.00    +0.000 C 
ENDBRANCH  44  46
ENDBRANCH  20  44
ENDBRANCH  16  20
ENDBRANCH  15  18
BRANCH  15  48
ATOM     48  CB  PHE A   5      18.450  66.424  41.438  0.00  0.00    +0.055 C 
BRANCH  48  49
ATOM     49  CG  PHE A   5      16.949  66.275  41.510  0.00  0.00    -0.020 A 
ATOM     50  CD2 PHE A   5      16.096  67.374  41.636  0.00  0.00    -0.004 A 
ATOM     51  CE2 PHE A   5      14.705  67.206  41.612  0.00  0.00    -0.000 A 
ATOM     52  CZ  PHE A   5      14.151  65.928  41.451  0.00  0.00    -0.000 A 
ATOM     53  CE1 PHE A   5      14.995  64.830  41.314  0.00  0.00    -0.000 A 
ATOM     54  CD1 PHE A   5      16.387  65.013  41.343  0.00  0.00    -0.004 A 
ENDBRANCH  48  49
ENDBRANCH  15  48
ENDBRANCH  11  15
ENDBRANCH  10  13
BRANCH  10  55
ATOM     55  CB  TYR A   6      20.904  64.900  45.951  0.00  0.00    +0.055 C 
BRANCH  55  56
ATOM     56  CG  TYR A   6      20.855  64.405  47.380  0.00  0.00    -0.020 A 
ATOM     57  CD2 TYR A   6      21.363  65.180  48.418  0.00  0.00    -0.001 A 
ATOM     58  CE2 TYR A   6      21.279  64.770  49.732  0.00  0.00    +0.036 A 
ATOM     59  CZ  TYR A   6      20.675  63.568  50.037  0.00  0.00    +0.134 A 
ATOM     60  CE1 TYR A   6      20.177  62.754  49.037  0.00  0.00    +0.036 A 
ATOM     61  CD1 TYR A   6      20.249  63.186  47.705  0.00  0.00    -0.001 A 
BRANCH  59  62
ATOM     62  OH  TYR A   6      20.641  63.194  51.361  0.00  0.00    -0.506 OA
ATOM     63  HH  TYR A   6      21.154  62.356  51.479  0.00  0.00    +0.292 HD
ENDBRANCH  59  62
ENDBRANCH  55  56
ENDBRANCH  10  55
ENDBRANCH   6  10
ENDBRANCH   5   8
BRANCH   5  64
ATOM     64  CB  LEU A   7      22.563  69.773  46.767  0.00  0.00    +0.029 C 
BRANCH  64  65
ATOM     65  CG  LEU A   7      23.790  68.887  46.986  0.00  0.00    +0.002 C 
ATOM     66  CD2 LEU A   7      23.999  68.626  48.498  0.00  0.00    +0.000 C 
ATOM     67  CD1 LEU A   7      25.004  69.601  46.395  0.00  0.00    +0.000 C 
ENDBRANCH  64  65
ENDBRANCH   5  64
ENDBRANCH   1   5
BRANCH   3  68
ATOM     68  CA  VAL A   8      18.436  71.387  45.881  0.00  0.00    +0.149 C 
BRANCH  68  69
ATOM     69  C   VAL A   8      17.208  70.868  46.634  0.00  0.00    +0.241 C 
ATOM     70  O   VAL A   8      16.566  71.614  47.380  0.00  0.00    -0.273 OA
ATOM     71  N   LEU A   9      16.890  69.584  46.478  0.00  0.00    -0.297 N 
ATOM     72  H   LEU A   9      17.437  68.979  45.833  0.00  0.00    +0.150 HD
BRANCH  71  73
ATOM     73  CA  LEU A   9      15.761  69.039  47.228  0.00  0.00    +0.149 C 
BRANCH  73  74
ATOM     74  C   LEU A   9      16.071  68.958  48.714  0.00  0.00    +0.241 C 
ATOM     75  O   LEU A   9      15.193  69.121  49.551  0.00  0.00    -0.273 OA
ATOM     76  N   ARG A  10      17.328  68.706  49.059  0.00  0.00    -0.297 N 
ATOM     77  H   ARG A  10      18.033  68.487  48.326  0.00  0.00    +0.150 HD
BRANCH  76  78
ATOM     78  CA  ARG A  10      17.725  68.736  50.465  0.00  0.00    +0.149 C 
BRANCH  78  79
ATOM     79  C   ARG A  10      17.488  70.117  51.106  0.00  0.00    +0.241 C 
ATOM     80  O   ARG A  10      17.039  70.230  52.254  0.00  0.00    -0.273 OA
ATOM     81  N   ALA A  11      17.789  71.174  50.359  0.00  0.00    -0.297 N 
ATOM     82  H   ALA A  11      18.168  71.022  49.403  0.00  0.00    +0.150 HD
BRANCH  81  83
ATOM     83  CA  ALA A  11      17.606  72.538  50.834  0.00  0.00    +0.149 C 
ATOM     84  CB  ALA A  11      18.245  73.541  49.838  0.00  0.00    +0.031 C 
BRANCH  83  85
ATOM     85  C   ALA A  11      16.108  72.787  51.031  0.00  0.00    +0.241 C 
ATOM     86  O   ALA A  11      15.673  73.324  52.051  0.00  0.00    -0.273 OA
ATOM     87  N   LEU A  12      15.302  72.341  50.074  0.00  0.00    -0.297 N 
ATOM     88  H   LEU A  12      15.701  71.874  49.235  0.00  0.00    +0.150 HD
BRANCH  87  89
ATOM     89  CA  LEU A  12      13.851  72.507  50.200  0.00  0.00    +0.149 C 
BRANCH  89  90
ATOM     90  C   LEU A  12      13.302  71.736  51.408  0.00  0.00    +0.241 C 
ATOM     91  O   LEU A  12      12.496  72.268  52.177  0.00  0.00    -0.273 OA
ATOM     92  N   ASP A  13      13.747  70.492  51.569  0.00  0.00    -0.297 N 
ATOM     93  H   ASP A  13      14.391  70.096  50.855  0.00  0.00    +0.150 HD
BRANCH  92  94
ATOM     94  CA  ASP A  13      13.367  69.660  52.708  0.00  0.00    +0.160 C 
BRANCH  94  95
ATOM     95  C   ASP A  13      13.699  70.302  54.056  0.00  0.00    +0.241 C 
ATOM     96  O   ASP A  13      12.887  70.258  54.983  0.00  0.00    -0.273 OA
ATOM     97  N   THR A  14      14.888  70.901  54.143  0.00  0.00    -0.296 N 
ATOM     98  H   THR A  14      15.515  70.871  53.314  0.00  0.00    +0.150 HD
BRANCH  97  99
ATOM     99  CA  THR A  14      15.357  71.595  55.337  0.00  0.00    +0.164 C 
BRANCH  99 100
ATOM    100  C   THR A  14      14.447  72.776  55.712  0.00  0.00    +0.229 C 
ATOM    101  O   THR A  14      14.130  72.969  56.886  0.00  0.00    -0.286 OA
ENDBRANCH  99 100
BRANCH  99 102
ATOM    102  CB  THR A  14      16.824  72.052  55.145  0.00  0.00    +0.136 C 
ATOM    103  CG2 THR A  14      17.395  72.613  56.465  0.00  0.00    +0.034 C 
BRANCH 102 104
ATOM    104  OG1 THR A  14      17.619  70.931  54.720  0.00  0.00    -0.382 OA
ATOM    105  HG1 THR A  14      17.265  70.583  53.864  0.00  0.00    +0.210 HD
ENDBRANCH 102 104
ENDBRANCH  99 102
ENDBRANCH  97  99
ENDBRANCH  94  95
BRANCH  94 106
ATOM    106  CB  ASP A  13      14.033  68.282  52.585  0.00  0.00    +0.143 C 
BRANCH 106 107
ATOM    107  CG  ASP A  13      13.669  67.356  53.729  0.00  0.00    +0.367 C 
ATOM    108  OD2 ASP A  13      14.486  67.174  54.661  0.00  0.00    -0.246 OA
ATOM    109  OD1 ASP A  13      12.537  66.838  53.715  0.00  0.00    -0.246 OA
ENDBRANCH 106 107
ENDBRANCH  94 106
ENDBRANCH  92  94
ENDBRANCH  89  90
BRANCH  89 110
ATOM    110  CB  LEU A  12      13.160  72.052  48.911  0.00  0.00    +0.029 C 
BRANCH 110 111
ATOM    111  CG  LEU A  12      11.653  72.239  48.731  0.00  0.00    +0.002 C 
ATOM    112  CD2 LEU A  12      11.253  73.730  48.833  0.00  0.00    +0.000 C 
ATOM    113  CD1 LEU A  12      11.260  71.721  47.358  0.00  0.00    +0.000 C 
ENDBRANCH 110 111
ENDBRANCH  89 110
ENDBRANCH  87  89
ENDBRANCH  83  85
ENDBRANCH  81  83
ENDBRANCH  78  79
BRANCH  78 114
ATOM    114  CB  ARG A  10      19.197  68.345  50.572  0.00  0.00    +0.033 C 
BRANCH 114 115
ATOM    115  CG  ARG A  10      19.645  68.135  51.999  0.00  0.00    +0.045 C 
BRANCH 115 116
ATOM    116  CD  ARG A  10      19.239  66.741  52.432  0.00  0.00    +0.174 C 
BRANCH 116 117
ATOM    117  NE  ARG A  10      19.223  66.605  53.884  0.00  0.00    -0.265 N 
ATOM    118  CZ  ARG A  10      19.448  65.457  54.513  0.00  0.00    +0.342 C 
ATOM    119  NH2 ARG A  10      19.401  65.397  55.839  0.00  0.00    -0.292 N 
ATOM    120 HH21 ARG A  10      19.187  66.252  56.391  0.00  0.00    +0.255 HD
ATOM    121 HH22 ARG A  10      19.578  64.495  56.325  0.00  0.00    +0.255 HD
ATOM    122  NH1 ARG A  10      19.770  64.384  53.810  0.00  0.00    -0.292 N 
ATOM    123 HH11 ARG A  10      19.948  63.480  54.293  0.00  0.00    +0.255 HD
ATOM    124 HH12 ARG A  10      19.845  64.444  52.774  0.00  0.00    +0.255 HD
ATOM    125  HE  ARG A  10      19.025  67.450  54.456  0.00  0.00    +0.259 HD
ENDBRANCH 116 117
ENDBRANCH 115 116
ENDBRANCH 114 115
ENDBRANCH  78 114
ENDBRANCH  76  78
ENDBRANCH  73  74
BRANCH  73 126
ATOM    126  CB  LEU A   9      15.330  67.668  46.695  0.00  0.00    +0.029 C 
BRANCH 126 127
ATOM    127  CG  LEU A   9      14.701  67.650  45.300  0.00  0.00    +0.002 C 
ATOM    128  CD2 LEU A   9      13.578  68.674  45.117  0.00  0.00    +0.000 C 
ATOM    129  CD1 LEU A   9      14.183  66.248  45.072  0.00  0.00    +0.000 C 
ENDBRANCH 126 127
ENDBRANCH  73 126
ENDBRANCH  71  73
ENDBRANCH  68  69
BRANCH  68 130
ATOM    130  CB  VAL A   8      18.151  71.648  44.385  0.00  0.00    +0.027 C 
ATOM    131  CG2 VAL A   8      16.786  72.227  44.135  0.00  0.00    +0.002 C 
ATOM    132  CG1 VAL A   8      19.246  72.560  43.832  0.00  0.00    +0.002 C 
ENDBRANCH  68 130
ENDBRANCH   3  68
TORSDOF 52
REMARK  Name = ../refined-set-2016/3vjc/3vjc_pocket.pdb
REMARK  289 active torsions:
REMARK  status: ('A' for Active; 'I' for Inactive)
REMARK    1  A    between atoms: _1  and  _3
REMARK    2  A    between atoms: _3  and  _4
REMARK    3  A    between atoms: _3  and  _6
REMARK    4  A    between atoms: _6  and  _7
REMARK    5  A    between atoms: _10  and  _12
REMARK    6  A    between atoms: _12  and  _13
REMARK    7  A    between atoms: _12  and  _15
REMARK    8  A    between atoms: _15  and  _16
REMARK    9  A    between atoms: _21  and  _23
REMARK   10  A    between atoms: _23  and  _24
REMARK   11  A    between atoms: _23  and  _26
REMARK   12  A    between atoms: _26  and  _27
REMARK   13  A    between atoms: _27  and  _28
REMARK   14  A    between atoms: _33  and  _35
REMARK   15  A    between atoms: _35  and  _36
REMARK   16  A    between atoms: _35  and  _38
REMARK   17  A    between atoms: _38  and  _39
REMARK   18  A    between atoms: _42  and  _44
REMARK   19  A    between atoms: _44  and  _45
REMARK   20  A    between atoms: _44  and  _47
REMARK   21  A    between atoms: _47  and  _48
REMARK   22  A    between atoms: _50  and  _52
REMARK   23  A    between atoms: _52  and  _53
REMARK   24  A    between atoms: _52  and  _55
REMARK   25  A    between atoms: _55  and  _56
REMARK   26  A    between atoms: _56  and  _57
REMARK   27  A    between atoms: _57  and  _58
REMARK   28  A    between atoms: _67  and  _69
REMARK   29  A    between atoms: _69  and  _70
REMARK   30  A    between atoms: _69  and  _72
REMARK   31  A    between atoms: _72  and  _73
REMARK   32  A    between atoms: _75  and  _77
REMARK   33  A    between atoms: _77  and  _78
REMARK   34  A    between atoms: _77  and  _80
REMARK   35  A    between atoms: _80  and  _81
REMARK   36  A    between atoms: _87  and  _89
REMARK   37  A    between atoms: _89  and  _90
REMARK   38  A    between atoms: _93  and  _95
REMARK   39  A    between atoms: _95  and  _96
REMARK   40  A    between atoms: _99  and  _101
REMARK   41  A    between atoms: _101  and  _102
REMARK   42  A    between atoms: _101  and  _104
REMARK   43  A    between atoms: _107  and  _109
REMARK   44  A    between atoms: _109  and  _110
REMARK   45  A    between atoms: _109  and  _112
REMARK   46  A    between atoms: _112  and  _113
REMARK   47  A    between atoms: _116  and  _118
REMARK   48  A    between atoms: _118  and  _119
REMARK   49  A    between atoms: _118  and  _121
REMARK   50  A    between atoms: _121  and  _122
REMARK   51  A    between atoms: _125  and  _127
REMARK   52  A    between atoms: _127  and  _128
REMARK   53  A    between atoms: _131  and  _133
REMARK   54  A    between atoms: _133  and  _134
REMARK   55  A    between atoms: _133  and  _136
REMARK   56  A    between atoms: _139  and  _141
REMARK   57  A    between atoms: _141  and  _142
REMARK   58  A    between atoms: _141  and  _144
REMARK   59  A    between atoms: _146  and  _148
REMARK   60  A    between atoms: _148  and  _149
REMARK   61  A    between atoms: _148  and  _151
REMARK   62  A    between atoms: _151  and  _152
REMARK   63  A    between atoms: _155  and  _157
REMARK   64  A    between atoms: _157  and  _158
REMARK   65  A    between atoms: _157  and  _160
REMARK   66  A    between atoms: _160  and  _161
REMARK   67  A    between atoms: _167  and  _169
REMARK   68  A    between atoms: _169  and  _170
REMARK   69  A    between atoms: _169  and  _172
REMARK   70  A    between atoms: _172  and  _173
REMARK   71  A    between atoms: _178  and  _179
REMARK   72  A    between atoms: _181  and  _183
REMARK   73  A    between atoms: _183  and  _184
REMARK   74  A    between atoms: _183  and  _186
REMARK   75  A    between atoms: _186  and  _187
REMARK   76  A    between atoms: _190  and  _192
REMARK   77  A    between atoms: _192  and  _193
REMARK   78  A    between atoms: _192  and  _195
REMARK   79  A    between atoms: _198  and  _200
REMARK   80  A    between atoms: _200  and  _201
REMARK   81  A    between atoms: _200  and  _203
REMARK   82  A    between atoms: _203  and  _204
REMARK   83  A    between atoms: _207  and  _209
REMARK   84  A    between atoms: _209  and  _210
REMARK   85  A    between atoms: _209  and  _212
REMARK   86  A    between atoms: _212  and  _213
REMARK   87  A    between atoms: _213  and  _214
REMARK   88  A    between atoms: _214  and  _215
REMARK   89  A    between atoms: _224  and  _226
REMARK   90  A    between atoms: _226  and  _227
REMARK   91  A    between atoms: _230  and  _232
REMARK   92  A    between atoms: _232  and  _233
REMARK   93  A    between atoms: _232  and  _235
REMARK   94  A    between atoms: _235  and  _236
REMARK   95  A    between atoms: _239  and  _241
REMARK   96  A    between atoms: _241  and  _242
REMARK   97  A    between atoms: _241  and  _244
REMARK   98  A    between atoms: _244  and  _245
REMARK   99  A    between atoms: _248  and  _250
REMARK  100  A    between atoms: _250  and  _251
REMARK  101  A    between atoms: _250  and  _253
REMARK  102  A    between atoms: _253  and  _254
REMARK  103  A    between atoms: _257  and  _259
REMARK  104  A    between atoms: _259  and  _260
REMARK  105  A    between atoms: _259  and  _262
REMARK  106  A    between atoms: _262  and  _263
REMARK  107  A    between atoms: _263  and  _264
REMARK  108  A    between atoms: _267  and  _269
REMARK  109  A    between atoms: _269  and  _270
REMARK  110  A    between atoms: _269  and  _272
REMARK  111  A    between atoms: _272  and  _273
REMARK  112  A    between atoms: _276  and  _278
REMARK  113  A    between atoms: _278  and  _279
REMARK  114  A    between atoms: _278  and  _281
REMARK  115  A    between atoms: _281  and  _282
REMARK  116  A    between atoms: _282  and  _283
REMARK  117  A    between atoms: _283  and  _284
REMARK  118  A    between atoms: _284  and  _285
REMARK  119  A    between atoms: _289  and  _291
REMARK  120  A    between atoms: _291  and  _292
REMARK  121  A    between atoms: _291  and  _294
REMARK  122  A    between atoms: _294  and  _295
REMARK  123  A    between atoms: _298  and  _300
REMARK  124  A    between atoms: _300  and  _301
REMARK  125  A    between atoms: _300  and  _303
REMARK  126  A    between atoms: _303  and  _304
REMARK  127  A    between atoms: _307  and  _309
REMARK  128  A    between atoms: _309  and  _310
REMARK  129  A    between atoms: _309  and  _312
REMARK  130  A    between atoms: _312  and  _313
REMARK  131  A    between atoms: _313  and  _314
REMARK  132  A    between atoms: _316  and  _318
REMARK  133  A    between atoms: _318  and  _319
REMARK  134  A    between atoms: _318  and  _321
REMARK  135  A    between atoms: _321  and  _322
REMARK  136  A    between atoms: _322  and  _323
REMARK  137  A    between atoms: _325  and  _327
REMARK  138  A    between atoms: _327  and  _328
REMARK  139  A    between atoms: _327  and  _330
REMARK  140  A    between atoms: _330  and  _331
REMARK  141  A    between atoms: _336  and  _337
REMARK  142  A    between atoms: _339  and  _341
REMARK  143  A    between atoms: _341  and  _342
REMARK  144  A    between atoms: _341  and  _344
REMARK  145  A    between atoms: _344  and  _345
REMARK  146  A    between atoms: _350  and  _351
REMARK  147  A    between atoms: _353  and  _355
REMARK  148  A    between atoms: _355  and  _356
REMARK  149  A    between atoms: _355  and  _358
REMARK  150  A    between atoms: _361  and  _363
REMARK  151  A    between atoms: _363  and  _364
REMARK  152  A    between atoms: _367  and  _369
REMARK  153  A    between atoms: _369  and  _370
REMARK  154  A    between atoms: _372  and  _374
REMARK  155  A    between atoms: _374  and  _375
REMARK  156  A    between atoms: _374  and  _377
REMARK  157  A    between atoms: _377  and  _378
REMARK  158  A    between atoms: _381  and  _383
REMARK  159  A    between atoms: _383  and  _384
REMARK  160  A    between atoms: _383  and  _386
REMARK  161  A    between atoms: _389  and  _391
REMARK  162  A    between atoms: _391  and  _392
REMARK  163  A    between atoms: _394  and  _396
REMARK  164  A    between atoms: _396  and  _397
REMARK  165  A    between atoms: _399  and  _401
REMARK  166  A    between atoms: _401  and  _402
REMARK  167  A    between atoms: _401  and  _404
REMARK  168  A    between atoms: _404  and  _405
REMARK  169  A    between atoms: _408  and  _410
REMARK  170  A    between atoms: _410  and  _411
REMARK  171  A    between atoms: _410  and  _413
REMARK  172  A    between atoms: _413  and  _414
REMARK  173  A    between atoms: _417  and  _419
REMARK  174  A    between atoms: _419  and  _420
REMARK  175  A    between atoms: _419  and  _422
REMARK  176  A    between atoms: _422  and  _423
REMARK  177  A    between atoms: _429  and  _431
REMARK  178  A    between atoms: _431  and  _432
REMARK  179  A    between atoms: _431  and  _434
REMARK  180  A    between atoms: _434  and  _435
REMARK  181  A    between atoms: _435  and  _436
REMARK  182  A    between atoms: _438  and  _440
REMARK  183  A    between atoms: _440  and  _441
REMARK  184  A    between atoms: _440  and  _443
REMARK  185  A    between atoms: _443  and  _444
REMARK  186  A    between atoms: _450  and  _452
REMARK  187  A    between atoms: _452  and  _453
REMARK  188  A    between atoms: _452  and  _455
REMARK  189  A    between atoms: _455  and  _456
REMARK  190  A    between atoms: _459  and  _461
REMARK  191  A    between atoms: _461  and  _462
REMARK  192  A    between atoms: _461  and  _464
REMARK  193  A    between atoms: _464  and  _465
REMARK  194  A    between atoms: _465  and  _466
REMARK  195  A    between atoms: _471  and  _473
REMARK  196  A    between atoms: _473  and  _474
REMARK  197  A    between atoms: _473  and  _476
REMARK  198  A    between atoms: _476  and  _477
REMARK  199  A    between atoms: _477  and  _478
REMARK  200  A    between atoms: _478  and  _479
REMARK  201  A    between atoms: _479  and  _480
REMARK  202  A    between atoms: _484  and  _486
REMARK  203  A    between atoms: _486  and  _487
REMARK  204  A    between atoms: _486  and  _489
REMARK  205  A    between atoms: _489  and  _490
REMARK  206  A    between atoms: _493  and  _495
REMARK  207  A    between atoms: _495  and  _496
REMARK  208  A    between atoms: _495  and  _498
REMARK  209  A    between atoms: _498  and  _499
REMARK  210  A    between atoms: _504  and  _506
REMARK  211  A    between atoms: _506  and  _507
REMARK  212  A    between atoms: _506  and  _509
REMARK  213  A    between atoms: _509  and  _510
REMARK  214  A    between atoms: _513  and  _515
REMARK  215  A    between atoms: _515  and  _516
REMARK  216  A    between atoms: _515  and  _518
REMARK  217  A    between atoms: _518  and  _519
REMARK  218  A    between atoms: _519  and  _520
REMARK  219  A    between atoms: _520  and  _521
REMARK  220  A    between atoms: _530  and  _532
REMARK  221  A    between atoms: _532  and  _533
REMARK  222  A    between atoms: _532  and  _535
REMARK  223  A    between atoms: _535  and  _536
REMARK  224  A    between atoms: _539  and  _541
REMARK  225  A    between atoms: _541  and  _542
REMARK  226  A    between atoms: _541  and  _544
REMARK  227  A    between atoms: _544  and  _545
REMARK  228  A    between atoms: _545  and  _546
REMARK  229  A    between atoms: _549  and  _551
REMARK  230  A    between atoms: _551  and  _552
REMARK  231  A    between atoms: _551  and  _554
REMARK  232  A    between atoms: _554  and  _555
REMARK  233  A    between atoms: _561  and  _563
REMARK  234  A    between atoms: _563  and  _564
REMARK  235  A    between atoms: _563  and  _566
REMARK  236  A    between atoms: _566  and  _567
REMARK  237  A    between atoms: _571  and  _572
REMARK  238  A    between atoms: _577  and  _579
REMARK  239  A    between atoms: _579  and  _580
REMARK  240  A    between atoms: _579  and  _582
REMARK  241  A    between atoms: _582  and  _583
REMARK  242  A    between atoms: _583  and  _584
REMARK  243  A    between atoms: _589  and  _591
REMARK  244  A    between atoms: _591  and  _592
REMARK  245  A    between atoms: _591  and  _594
REMARK  246  A    between atoms: _597  and  _599
REMARK  247  A    between atoms: _599  and  _600
REMARK  248  A    between atoms: _599  and  _602
REMARK  249  A    between atoms: _602  and  _603
REMARK  250  A    between atoms: _603  and  _604
REMARK  251  A    between atoms: _606  and  _608
REMARK  252  A    between atoms: _608  and  _609
REMARK  253  A    between atoms: _612  and  _614
REMARK  254  A    between atoms: _614  and  _615
REMARK  255  A    between atoms: _614  and  _617
REMARK  256  A    between atoms: _617  and  _618
REMARK  257  A    between atoms: _621  and  _623
REMARK  258  A    between atoms: _623  and  _624
REMARK  259  A    between atoms: _627  and  _629
REMARK  260  A    between atoms: _629  and  _630
REMARK  261  A    between atoms: _629  and  _632
REMARK  262  A    between atoms: _632  and  _633
REMARK  263  A    between atoms: _636  and  _638
REMARK  264  A    between atoms: _638  and  _639
REMARK  265  A    between atoms: _638  and  _641
REMARK  266  A    between atoms: _641  and  _642
REMARK  267  A    between atoms: _645  and  _647
REMARK  268  A    between atoms: _647  and  _648
REMARK  269  A    between atoms: _647  and  _650
REMARK  270  A    between atoms: _650  and  _651
REMARK  271  A    between atoms: _654  and  _656
REMARK  272  A    between atoms: _656  and  _657
REMARK  273  A    between atoms: _656  and  _659
REMARK  274  A    between atoms: _659  and  _660
REMARK  275  A    between atoms: _660  and  _661
REMARK  276  A    between atoms: _666  and  _668
REMARK  277  A    between atoms: _668  and  _669
REMARK  278  A    between atoms: _672  and  _674
REMARK  279  A    between atoms: _674  and  _675
REMARK  280  A    between atoms: _674  and  _677
REMARK  281  A    between atoms: _680  and  _682
REMARK  282  A    between atoms: _682  and  _683
REMARK  283  A    between atoms: _682  and  _685
REMARK  284  A    between atoms: _685  and  _686
REMARK  285  A    between atoms: _689  and  _691
REMARK  286  A    between atoms: _691  and  _692
REMARK  287  A    between atoms: _691  and  _694
REMARK  288  A    between atoms: _694  and  _695
REMARK  289  A    between atoms: _695  and  _696
REMARK                            x       y       z     vdW  Elec       q    Type
REMARK                         _______ _______ _______ _____ _____    ______ ____
ROOT
ATOM      1  C   GLU A   1       9.932  71.888  56.596  0.00  0.00    +0.238 C 
ATOM      2  O   GLU A   1       8.984  72.152  57.349  0.00  0.00    -0.274 OA
ATOM      3  N   ASP A   2      11.054  71.305  57.010  0.00  0.00    -0.298 N 
ATOM      4  H   ASP A   2      11.881  71.292  56.380  0.00  0.00    +0.150 HD
ENDROOT
BRANCH   1   5
ATOM      5  CA  GLU A   1       9.908  72.296  55.122  0.00  0.00    +0.145 C 
BRANCH   5   6
ATOM      6  N   GLU A   1      11.190  72.922  54.759  0.00  0.00    -0.238 NA
ATOM      7  H   GLU A   1      11.734  72.538  53.960  0.00  0.00    +0.142 HD
ENDBRANCH   5   6
BRANCH   5   8
ATOM      8  CB  GLU A   1       9.566  71.080  54.240  0.00  0.00    +0.038 C 
BRANCH   8   9
ATOM      9  CG  GLU A   1       8.135  70.529  54.503  0.00  0.00    +0.116 C 
BRANCH   9  10
ATOM     10  CD  GLU A   1       7.892  69.080  54.090  0.00  0.00    +0.365 C 
ATOM     11  OE2 GLU A   1       6.701  68.713  53.971  0.00  0.00    -0.246 OA
ATOM     12  OE1 GLU A   1       8.852  68.293  53.892  0.00  0.00    -0.246 OA
ENDBRANCH   9  10
ENDBRANCH   8   9
ENDBRANCH   5   8
ENDBRANCH   1   5
BRANCH   3  13
ATOM     13  CA  ASP A   2      11.153  70.685  58.322  0.00  0.00    +0.148 C 
BRANCH  13  14
ATOM     14  C   ASP A   2      11.450  71.607  59.490  0.00  0.00    +0.227 C 
ATOM     15  O   ASP A   2      11.293  71.216  60.643  0.00  0.00    -0.286 OA
ENDBRANCH  13  14
BRANCH  13  16
ATOM     16  CB  ASP A   2      12.262  69.639  58.312  0.00  0.00    +0.142 C 
BRANCH  16  17
ATOM     17  CG  ASP A   2      11.712  68.252  58.154  0.00  0.00    +0.367 C 
ATOM     18  OD2 ASP A   2      11.619  67.554  59.192  0.00  0.00    -0.246 OA
ATOM     19  OD1 ASP A   2      11.362  67.899  57.005  0.00  0.00    -0.246 OA
ENDBRANCH  16  17
ENDBRANCH  13  16
ENDBRANCH   3  13
TORSDOF 9
REMARK  Name = ../refined-set-2016/3vjc/3vjc_pocket.pdb
REMARK  289 active torsions:
REMARK  status: ('A' for Active; 'I' for Inactive)
REMARK    1  A    between atoms: _1  and  _3
REMARK    2  A    between atoms: _3  and  _4
REMARK    3  A    between atoms: _3  and  _6
REMARK    4  A    between atoms: _6  and  _7
REMARK    5  A    between atoms: _10  and  _12
REMARK    6  A    between atoms: _12  and  _13
REMARK    7  A    between atoms: _12  and  _15
REMARK    8  A    between atoms: _15  and  _16
REMARK    9  A    between atoms: _21  and  _23
REMARK   10  A    between atoms: _23  and  _24
REMARK   11  A    between atoms: _23  and  _26
REMARK   12  A    between atoms: _26  and  _27
REMARK   13  A    between atoms: _27  and  _28
REMARK   14  A    between atoms: _33  and  _35
REMARK   15  A    between atoms: _35  and  _36
REMARK   16  A    between atoms: _35  and  _38
REMARK   17  A    between atoms: _38  and  _39
REMARK   18  A    between atoms: _42  and  _44
REMARK   19  A    between atoms: _44  and  _45
REMARK   20  A    between atoms: _44  and  _47
REMARK   21  A    between atoms: _47  and  _48
REMARK   22  A    between atoms: _50  and  _52
REMARK   23  A    between atoms: _52  and  _53
REMARK   24  A    between atoms: _52  and  _55
REMARK   25  A    between atoms: _55  and  _56
REMARK   26  A    between atoms: _56  and  _57
REMARK   27  A    between atoms: _57  and  _58
REMARK   28  A    between atoms: _67  and  _69
REMARK   29  A    between atoms: _69  and  _70
REMARK   30  A    between atoms: _69  and  _72
REMARK   31  A    between atoms: _72  and  _73
REMARK   32  A    between atoms: _75  and  _77
REMARK   33  A    between atoms: _77  and  _78
REMARK   34  A    between atoms: _77  and  _80
REMARK   35  A    between atoms: _80  and  _81
REMARK   36  A    between atoms: _87  and  _89
REMARK   37  A    between atoms: _89  and  _90
REMARK   38  A    between atoms: _93  and  _95
REMARK   39  A    between atoms: _95  and  _96
REMARK   40  A    between atoms: _99  and  _101
REMARK   41  A    between atoms: _101  and  _102
REMARK   42  A    between atoms: _101  and  _104
REMARK   43  A    between atoms: _107  and  _109
REMARK   44  A    between atoms: _109  and  _110
REMARK   45  A    between atoms: _109  and  _112
REMARK   46  A    between atoms: _112  and  _113
REMARK   47  A    between atoms: _116  and  _118
REMARK   48  A    between atoms: _118  and  _119
REMARK   49  A    between atoms: _118  and  _121
REMARK   50  A    between atoms: _121  and  _122
REMARK   51  A    between atoms: _125  and  _127
REMARK   52  A    between atoms: _127  and  _128
REMARK   53  A    between atoms: _131  and  _133
REMARK   54  A    between atoms: _133  and  _134
REMARK   55  A    between atoms: _133  and  _136
REMARK   56  A    between atoms: _139  and  _141
REMARK   57  A    between atoms: _141  and  _142
REMARK   58  A    between atoms: _141  and  _144
REMARK   59  A    between atoms: _146  and  _148
REMARK   60  A    between atoms: _148  and  _149
REMARK   61  A    between atoms: _148  and  _151
REMARK   62  A    between atoms: _151  and  _152
REMARK   63  A    between atoms: _155  and  _157
REMARK   64  A    between atoms: _157  and  _158
REMARK   65  A    between atoms: _157  and  _160
REMARK   66  A    between atoms: _160  and  _161
REMARK   67  A    between atoms: _167  and  _169
REMARK   68  A    between atoms: _169  and  _170
REMARK   69  A    between atoms: _169  and  _172
REMARK   70  A    between atoms: _172  and  _173
REMARK   71  A    between atoms: _178  and  _179
REMARK   72  A    between atoms: _181  and  _183
REMARK   73  A    between atoms: _183  and  _184
REMARK   74  A    between atoms: _183  and  _186
REMARK   75  A    between atoms: _186  and  _187
REMARK   76  A    between atoms: _190  and  _192
REMARK   77  A    between atoms: _192  and  _193
REMARK   78  A    between atoms: _192  and  _195
REMARK   79  A    between atoms: _198  and  _200
REMARK   80  A    between atoms: _200  and  _201
REMARK   81  A    between atoms: _200  and  _203
REMARK   82  A    between atoms: _203  and  _204
REMARK   83  A    between atoms: _207  and  _209
REMARK   84  A    between atoms: _209  and  _210
REMARK   85  A    between atoms: _209  and  _212
REMARK   86  A    between atoms: _212  and  _213
REMARK   87  A    between atoms: _213  and  _214
REMARK   88  A    between atoms: _214  and  _215
REMARK   89  A    between atoms: _224  and  _226
REMARK   90  A    between atoms: _226  and  _227
REMARK   91  A    between atoms: _230  and  _232
REMARK   92  A    between atoms: _232  and  _233
REMARK   93  A    between atoms: _232  and  _235
REMARK   94  A    between atoms: _235  and  _236
REMARK   95  A    between atoms: _239  and  _241
REMARK   96  A    between atoms: _241  and  _242
REMARK   97  A    between atoms: _241  and  _244
REMARK   98  A    between atoms: _244  and  _245
REMARK   99  A    between atoms: _248  and  _250
REMARK  100  A    between atoms: _250  and  _251
REMARK  101  A    between atoms: _250  and  _253
REMARK  102  A    between atoms: _253  and  _254
REMARK  103  A    between atoms: _257  and  _259
REMARK  104  A    between atoms: _259  and  _260
REMARK  105  A    between atoms: _259  and  _262
REMARK  106  A    between atoms: _262  and  _263
REMARK  107  A    between atoms: _263  and  _264
REMARK  108  A    between atoms: _267  and  _269
REMARK  109  A    between atoms: _269  and  _270
REMARK  110  A    between atoms: _269  and  _272
REMARK  111  A    between atoms: _272  and  _273
REMARK  112  A    between atoms: _276  and  _278
REMARK  113  A    between atoms: _278  and  _279
REMARK  114  A    between atoms: _278  and  _281
REMARK  115  A    between atoms: _281  and  _282
REMARK  116  A    between atoms: _282  and  _283
REMARK  117  A    between atoms: _283  and  _284
REMARK  118  A    between atoms: _284  and  _285
REMARK  119  A    between atoms: _289  and  _291
REMARK  120  A    between atoms: _291  and  _292
REMARK  121  A    between atoms: _291  and  _294
REMARK  122  A    between atoms: _294  and  _295
REMARK  123  A    between atoms: _298  and  _300
REMARK  124  A    between atoms: _300  and  _301
REMARK  125  A    between atoms: _300  and  _303
REMARK  126  A    between atoms: _303  and  _304
REMARK  127  A    between atoms: _307  and  _309
REMARK  128  A    between atoms: _309  and  _310
REMARK  129  A    between atoms: _309  and  _312
REMARK  130  A    between atoms: _312  and  _313
REMARK  131  A    between atoms: _313  and  _314
REMARK  132  A    between atoms: _316  and  _318
REMARK  133  A    between atoms: _318  and  _319
REMARK  134  A    between atoms: _318  and  _321
REMARK  135  A    between atoms: _321  and  _322
REMARK  136  A    between atoms: _322  and  _323
REMARK  137  A    between atoms: _325  and  _327
REMARK  138  A    between atoms: _327  and  _328
REMARK  139  A    between atoms: _327  and  _330
REMARK  140  A    between atoms: _330  and  _331
REMARK  141  A    between atoms: _336  and  _337
REMARK  142  A    between atoms: _339  and  _341
REMARK  143  A    between atoms: _341  and  _342
REMARK  144  A    between atoms: _341  and  _344
REMARK  145  A    between atoms: _344  and  _345
REMARK  146  A    between atoms: _350  and  _351
REMARK  147  A    between atoms: _353  and  _355
REMARK  148  A    between atoms: _355  and  _356
REMARK  149  A    between atoms: _355  and  _358
REMARK  150  A    between atoms: _361  and  _363
REMARK  151  A    between atoms: _363  and  _364
REMARK  152  A    between atoms: _367  and  _369
REMARK  153  A    between atoms: _369  and  _370
REMARK  154  A    between atoms: _372  and  _374
REMARK  155  A    between atoms: _374  and  _375
REMARK  156  A    between atoms: _374  and  _377
REMARK  157  A    between atoms: _377  and  _378
REMARK  158  A    between atoms: _381  and  _383
REMARK  159  A    between atoms: _383  and  _384
REMARK  160  A    between atoms: _383  and  _386
REMARK  161  A    between atoms: _389  and  _391
REMARK  162  A    between atoms: _391  and  _392
REMARK  163  A    between atoms: _394  and  _396
REMARK  164  A    between atoms: _396  and  _397
REMARK  165  A    between atoms: _399  and  _401
REMARK  166  A    between atoms: _401  and  _402
REMARK  167  A    between atoms: _401  and  _404
REMARK  168  A    between atoms: _404  and  _405
REMARK  169  A    between atoms: _408  and  _410
REMARK  170  A    between atoms: _410  and  _411
REMARK  171  A    between atoms: _410  and  _413
REMARK  172  A    between atoms: _413  and  _414
REMARK  173  A    between atoms: _417  and  _419
REMARK  174  A    between atoms: _419  and  _420
REMARK  175  A    between atoms: _419  and  _422
REMARK  176  A    between atoms: _422  and  _423
REMARK  177  A    between atoms: _429  and  _431
REMARK  178  A    between atoms: _431  and  _432
REMARK  179  A    between atoms: _431  and  _434
REMARK  180  A    between atoms: _434  and  _435
REMARK  181  A    between atoms: _435  and  _436
REMARK  182  A    between atoms: _438  and  _440
REMARK  183  A    between atoms: _440  and  _441
REMARK  184  A    between atoms: _440  and  _443
REMARK  185  A    between atoms: _443  and  _444
REMARK  186  A    between atoms: _450  and  _452
REMARK  187  A    between atoms: _452  and  _453
REMARK  188  A    between atoms: _452  and  _455
REMARK  189  A    between atoms: _455  and  _456
REMARK  190  A    between atoms: _459  and  _461
REMARK  191  A    between atoms: _461  and  _462
REMARK  192  A    between atoms: _461  and  _464
REMARK  193  A    between atoms: _464  and  _465
REMARK  194  A    between atoms: _465  and  _466
REMARK  195  A    between atoms: _471  and  _473
REMARK  196  A    between atoms: _473  and  _474
REMARK  197  A    between atoms: _473  and  _476
REMARK  198  A    between atoms: _476  and  _477
REMARK  199  A    between atoms: _477  and  _478
REMARK  200  A    between atoms: _478  and  _479
REMARK  201  A    between atoms: _479  and  _480
REMARK  202  A    between atoms: _484  and  _486
REMARK  203  A    between atoms: _486  and  _487
REMARK  204  A    between atoms: _486  and  _489
REMARK  205  A    between atoms: _489  and  _490
REMARK  206  A    between atoms: _493  and  _495
REMARK  207  A    between atoms: _495  and  _496
REMARK  208  A    between atoms: _495  and  _498
REMARK  209  A    between atoms: _498  and  _499
REMARK  210  A    between atoms: _504  and  _506
REMARK  211  A    between atoms: _506  and  _507
REMARK  212  A    between atoms: _506  and  _509
REMARK  213  A    between atoms: _509  and  _510
REMARK  214  A    between atoms: _513  and  _515
REMARK  215  A    between atoms: _515  and  _516
REMARK  216  A    between atoms: _515  and  _518
REMARK  217  A    between atoms: _518  and  _519
REMARK  218  A    between atoms: _519  and  _520
REMARK  219  A    between atoms: _520  and  _521
REMARK  220  A    between atoms: _530  and  _532
REMARK  221  A    between atoms: _532  and  _533
REMARK  222  A    between atoms: _532  and  _535
REMARK  223  A    between atoms: _535  and  _536
REMARK  224  A    between atoms: _539  and  _541
REMARK  225  A    between atoms: _541  and  _542
REMARK  226  A    between atoms: _541  and  _544
REMARK  227  A    between atoms: _544  and  _545
REMARK  228  A    between atoms: _545  and  _546
REMARK  229  A    between atoms: _549  and  _551
REMARK  230  A    between atoms: _551  and  _552
REMARK  231  A    between atoms: _551  and  _554
REMARK  232  A    between atoms: _554  and  _555
REMARK  233  A    between atoms: _561  and  _563
REMARK  234  A    between atoms: _563  and  _564
REMARK  235  A    between atoms: _563  and  _566
REMARK  236  A    between atoms: _566  and  _567
REMARK  237  A    between atoms: _571  and  _572
REMARK  238  A    between atoms: _577  and  _579
REMARK  239  A    between atoms: _579  and  _580
REMARK  240  A    between atoms: _579  and  _582
REMARK  241  A    between atoms: _582  and  _583
REMARK  242  A    between atoms: _583  and  _584
REMARK  243  A    between atoms: _589  and  _591
REMARK  244  A    between atoms: _591  and  _592
REMARK  245  A    between atoms: _591  and  _594
REMARK  246  A    between atoms: _597  and  _599
REMARK  247  A    between atoms: _599  and  _600
REMARK  248  A    between atoms: _599  and  _602
REMARK  249  A    between atoms: _602  and  _603
REMARK  250  A    between atoms: _603  and  _604
REMARK  251  A    between atoms: _606  and  _608
REMARK  252  A    between atoms: _608  and  _609
REMARK  253  A    between atoms: _612  and  _614
REMARK  254  A    between atoms: _614  and  _615
REMARK  255  A    between atoms: _614  and  _617
REMARK  256  A    between atoms: _617  and  _618
REMARK  257  A    between atoms: _621  and  _623
REMARK  258  A    between atoms: _623  and  _624
REMARK  259  A    between atoms: _627  and  _629
REMARK  260  A    between atoms: _629  and  _630
REMARK  261  A    between atoms: _629  and  _632
REMARK  262  A    between atoms: _632  and  _633
REMARK  263  A    between atoms: _636  and  _638
REMARK  264  A    between atoms: _638  and  _639
REMARK  265  A    between atoms: _638  and  _641
REMARK  266  A    between atoms: _641  and  _642
REMARK  267  A    between atoms: _645  and  _647
REMARK  268  A    between atoms: _647  and  _648
REMARK  269  A    between atoms: _647  and  _650
REMARK  270  A    between atoms: _650  and  _651
REMARK  271  A    between atoms: _654  and  _656
REMARK  272  A    between atoms: _656  and  _657
REMARK  273  A    between atoms: _656  and  _659
REMARK  274  A    between atoms: _659  and  _660
REMARK  275  A    between atoms: _660  and  _661
REMARK  276  A    between atoms: _666  and  _668
REMARK  277  A    between atoms: _668  and  _669
REMARK  278  A    between atoms: _672  and  _674
REMARK  279  A    between atoms: _674  and  _675
REMARK  280  A    between atoms: _674  and  _677
REMARK  281  A    between atoms: _680  and  _682
REMARK  282  A    between atoms: _682  and  _683
REMARK  283  A    between atoms: _682  and  _685
REMARK  284  A    between atoms: _685  and  _686
REMARK  285  A    between atoms: _689  and  _691
REMARK  286  A    between atoms: _691  and  _692
REMARK  287  A    between atoms: _691  and  _694
REMARK  288  A    between atoms: _694  and  _695
REMARK  289  A    between atoms: _695  and  _696
REMARK                            x       y       z     vdW  Elec       q    Type
REMARK                         _______ _______ _______ _____ _____    ______ ____
ROOT
ATOM      1  CA  LYS A   1      21.419  70.349  61.122  0.00  0.00    +0.145 C 
ENDROOT
BRANCH   1   2
ATOM      2  C   LYS A   1      22.046  70.441  59.729  0.00  0.00    +0.238 C 
ATOM      3  O   LYS A   1      23.273  70.515  59.624  0.00  0.00    -0.274 OA
ATOM      4  N   ASP A   2      21.228  70.452  58.678  0.00  0.00    -0.298 N 
ATOM      5  H   ASP A   2      20.201  70.442  58.843  0.00  0.00    +0.150 HD
BRANCH   4   6
ATOM      6  CA  ASP A   2      21.723  70.478  57.293  0.00  0.00    +0.148 C 
BRANCH   6   7
ATOM      7  C   ASP A   2      21.709  71.871  56.665  0.00  0.00    +0.227 C 
ATOM      8  O   ASP A   2      21.748  72.030  55.441  0.00  0.00    -0.286 OA
ENDBRANCH   6   7
BRANCH   6   9
ATOM      9  CB  ASP A   2      20.923  69.500  56.430  0.00  0.00    +0.142 C 
BRANCH   9  10
ATOM     10  CG  ASP A   2      21.034  68.073  56.945  0.00  0.00    +0.367 C 
ATOM     11  OD2 ASP A   2      19.995  67.495  57.342  0.00  0.00    -0.246 OA
ATOM     12  OD1 ASP A   2      22.174  67.555  56.993  0.00  0.00    -0.246 OA
ENDBRANCH   9  10
ENDBRANCH   6   9
ENDBRANCH   4   6
ENDBRANCH   1   2
BRANCH   1  13
ATOM     13  N   LYS A   1      20.067  70.909  61.187  0.00  0.00    -0.238 NA
ATOM     14  H   LYS A   1      19.269  70.280  61.408  0.00  0.00    +0.142 HD
ENDBRANCH   1  13
BRANCH   1  15
ATOM     15  CB  LYS A   1      21.463  68.912  61.661  0.00  0.00    +0.026 C 
BRANCH  15  16
ATOM     16  CG  LYS A   1      20.850  67.850  60.751  0.00  0.00    -0.000 C 
BRANCH  16  17
ATOM     17  CD  LYS A   1      20.632  66.522  61.474  0.00  0.00    -0.024 C 
BRANCH  17  18
ATOM     18  CE  LYS A   1      20.759  65.342  60.515  0.00  0.00    -0.086 C 
BRANCH  18  19
ATOM     19  NZ  LYS A   1      19.824  65.409  59.359  0.00  0.00    +0.380 N 
ATOM     20  HZ1 LYS A   1      18.844  65.422  59.707  0.00  0.00    -0.089 HD
ATOM     21  HZ2 LYS A   1      20.011  66.274  58.813  0.00  0.00    -0.089 HD
ATOM     22  HZ3 LYS A   1      19.966  64.577  58.751  0.00  0.00    -0.089 HD
ENDBRANCH  18  19
ENDBRANCH  17  18
ENDBRANCH  16  17
ENDBRANCH  15  16
ENDBRANCH   1  15
TORSDOF 11
REMARK  Name = ../refined-set-2016/3vjc/3vjc_pocket.pdb
REMARK  289 active torsions:
REMARK  status: ('A' for Active; 'I' for Inactive)
REMARK    1  A    between atoms: _1  and  _3
REMARK    2  A    between atoms: _3  and  _4
REMARK    3  A    between atoms: _3  and  _6
REMARK    4  A    between atoms: _6  and  _7
REMARK    5  A    between atoms: _10  and  _12
REMARK    6  A    between atoms: _12  and  _13
REMARK    7  A    between atoms: _12  and  _15
REMARK    8  A    between atoms: _15  and  _16
REMARK    9  A    between atoms: _21  and  _23
REMARK   10  A    between atoms: _23  and  _24
REMARK   11  A    between atoms: _23  and  _26
REMARK   12  A    between atoms: _26  and  _27
REMARK   13  A    between atoms: _27  and  _28
REMARK   14  A    between atoms: _33  and  _35
REMARK   15  A    between atoms: _35  and  _36
REMARK   16  A    between atoms: _35  and  _38
REMARK   17  A    between atoms: _38  and  _39
REMARK   18  A    between atoms: _42  and  _44
REMARK   19  A    between atoms: _44  and  _45
REMARK   20  A    between atoms: _44  and  _47
REMARK   21  A    between atoms: _47  and  _48
REMARK   22  A    between atoms: _50  and  _52
REMARK   23  A    between atoms: _52  and  _53
REMARK   24  A    between atoms: _52  and  _55
REMARK   25  A    between atoms: _55  and  _56
REMARK   26  A    between atoms: _56  and  _57
REMARK   27  A    between atoms: _57  and  _58
REMARK   28  A    between atoms: _67  and  _69
REMARK   29  A    between atoms: _69  and  _70
REMARK   30  A    between atoms: _69  and  _72
REMARK   31  A    between atoms: _72  and  _73
REMARK   32  A    between atoms: _75  and  _77
REMARK   33  A    between atoms: _77  and  _78
REMARK   34  A    between atoms: _77  and  _80
REMARK   35  A    between atoms: _80  and  _81
REMARK   36  A    between atoms: _87  and  _89
REMARK   37  A    between atoms: _89  and  _90
REMARK   38  A    between atoms: _93  and  _95
REMARK   39  A    between atoms: _95  and  _96
REMARK   40  A    between atoms: _99  and  _101
REMARK   41  A    between atoms: _101  and  _102
REMARK   42  A    between atoms: _101  and  _104
REMARK   43  A    between atoms: _107  and  _109
REMARK   44  A    between atoms: _109  and  _110
REMARK   45  A    between atoms: _109  and  _112
REMARK   46  A    between atoms: _112  and  _113
REMARK   47  A    between atoms: _116  and  _118
REMARK   48  A    between atoms: _118  and  _119
REMARK   49  A    between atoms: _118  and  _121
REMARK   50  A    between atoms: _121  and  _122
REMARK   51  A    between atoms: _125  and  _127
REMARK   52  A    between atoms: _127  and  _128
REMARK   53  A    between atoms: _131  and  _133
REMARK   54  A    between atoms: _133  and  _134
REMARK   55  A    between atoms: _133  and  _136
REMARK   56  A    between atoms: _139  and  _141
REMARK   57  A    between atoms: _141  and  _142
REMARK   58  A    between atoms: _141  and  _144
REMARK   59  A    between atoms: _146  and  _148
REMARK   60  A    between atoms: _148  and  _149
REMARK   61  A    between atoms: _148  and  _151
REMARK   62  A    between atoms: _151  and  _152
REMARK   63  A    between atoms: _155  and  _157
REMARK   64  A    between atoms: _157  and  _158
REMARK   65  A    between atoms: _157  and  _160
REMARK   66  A    between atoms: _160  and  _161
REMARK   67  A    between atoms: _167  and  _169
REMARK   68  A    between atoms: _169  and  _170
REMARK   69  A    between atoms: _169  and  _172
REMARK   70  A    between atoms: _172  and  _173
REMARK   71  A    between atoms: _178  and  _179
REMARK   72  A    between atoms: _181  and  _183
REMARK   73  A    between atoms: _183  and  _184
REMARK   74  A    between atoms: _183  and  _186
REMARK   75  A    between atoms: _186  and  _187
REMARK   76  A    between atoms: _190  and  _192
REMARK   77  A    between atoms: _192  and  _193
REMARK   78  A    between atoms: _192  and  _195
REMARK   79  A    between atoms: _198  and  _200
REMARK   80  A    between atoms: _200  and  _201
REMARK   81  A    between atoms: _200  and  _203
REMARK   82  A    between atoms: _203  and  _204
REMARK   83  A    between atoms: _207  and  _209
REMARK   84  A    between atoms: _209  and  _210
REMARK   85  A    between atoms: _209  and  _212
REMARK   86  A    between atoms: _212  and  _213
REMARK   87  A    between atoms: _213  and  _214
REMARK   88  A    between atoms: _214  and  _215
REMARK   89  A    between atoms: _224  and  _226
REMARK   90  A    between atoms: _226  and  _227
REMARK   91  A    between atoms: _230  and  _232
REMARK   92  A    between atoms: _232  and  _233
REMARK   93  A    between atoms: _232  and  _235
REMARK   94  A    between atoms: _235  and  _236
REMARK   95  A    between atoms: _239  and  _241
REMARK   96  A    between atoms: _241  and  _242
REMARK   97  A    between atoms: _241  and  _244
REMARK   98  A    between atoms: _244  and  _245
REMARK   99  A    between atoms: _248  and  _250
REMARK  100  A    between atoms: _250  and  _251
REMARK  101  A    between atoms: _250  and  _253
REMARK  102  A    between atoms: _253  and  _254
REMARK  103  A    between atoms: _257  and  _259
REMARK  104  A    between atoms: _259  and  _260
REMARK  105  A    between atoms: _259  and  _262
REMARK  106  A    between atoms: _262  and  _263
REMARK  107  A    between atoms: _263  and  _264
REMARK  108  A    between atoms: _267  and  _269
REMARK  109  A    between atoms: _269  and  _270
REMARK  110  A    between atoms: _269  and  _272
REMARK  111  A    between atoms: _272  and  _273
REMARK  112  A    between atoms: _276  and  _278
REMARK  113  A    between atoms: _278  and  _279
REMARK  114  A    between atoms: _278  and  _281
REMARK  115  A    between atoms: _281  and  _282
REMARK  116  A    between atoms: _282  and  _283
REMARK  117  A    between atoms: _283  and  _284
REMARK  118  A    between atoms: _284  and  _285
REMARK  119  A    between atoms: _289  and  _291
REMARK  120  A    between atoms: _291  and  _292
REMARK  121  A    between atoms: _291  and  _294
REMARK  122  A    between atoms: _294  and  _295
REMARK  123  A    between atoms: _298  and  _300
REMARK  124  A    between atoms: _300  and  _301
REMARK  125  A    between atoms: _300  and  _303
REMARK  126  A    between atoms: _303  and  _304
REMARK  127  A    between atoms: _307  and  _309
REMARK  128  A    between atoms: _309  and  _310
REMARK  129  A    between atoms: _309  and  _312
REMARK  130  A    between atoms: _312  and  _313
REMARK  131  A    between atoms: _313  and  _314
REMARK  132  A    between atoms: _316  and  _318
REMARK  133  A    between atoms: _318  and  _319
REMARK  134  A    between atoms: _318  and  _321
REMARK  135  A    between atoms: _321  and  _322
REMARK  136  A    between atoms: _322  and  _323
REMARK  137  A    between atoms: _325  and  _327
REMARK  138  A    between atoms: _327  and  _328
REMARK  139  A    between atoms: _327  and  _330
REMARK  140  A    between atoms: _330  and  _331
REMARK  141  A    between atoms: _336  and  _337
REMARK  142  A    between atoms: _339  and  _341
REMARK  143  A    between atoms: _341  and  _342
REMARK  144  A    between atoms: _341  and  _344
REMARK  145  A    between atoms: _344  and  _345
REMARK  146  A    between atoms: _350  and  _351
REMARK  147  A    between atoms: _353  and  _355
REMARK  148  A    between atoms: _355  and  _356
REMARK  149  A    between atoms: _355  and  _358
REMARK  150  A    between atoms: _361  and  _363
REMARK  151  A    between atoms: _363  and  _364
REMARK  152  A    between atoms: _367  and  _369
REMARK  153  A    between atoms: _369  and  _370
REMARK  154  A    between atoms: _372  and  _374
REMARK  155  A    between atoms: _374  and  _375
REMARK  156  A    between atoms: _374  and  _377
REMARK  157  A    between atoms: _377  and  _378
REMARK  158  A    between atoms: _381  and  _383
REMARK  159  A    between atoms: _383  and  _384
REMARK  160  A    between atoms: _383  and  _386
REMARK  161  A    between atoms: _389  and  _391
REMARK  162  A    between atoms: _391  and  _392
REMARK  163  A    between atoms: _394  and  _396
REMARK  164  A    between atoms: _396  and  _397
REMARK  165  A    between atoms: _399  and  _401
REMARK  166  A    between atoms: _401  and  _402
REMARK  167  A    between atoms: _401  and  _404
REMARK  168  A    between atoms: _404  and  _405
REMARK  169  A    between atoms: _408  and  _410
REMARK  170  A    between atoms: _410  and  _411
REMARK  171  A    between atoms: _410  and  _413
REMARK  172  A    between atoms: _413  and  _414
REMARK  173  A    between atoms: _417  and  _419
REMARK  174  A    between atoms: _419  and  _420
REMARK  175  A    between atoms: _419  and  _422
REMARK  176  A    between atoms: _422  and  _423
REMARK  177  A    between atoms: _429  and  _431
REMARK  178  A    between atoms: _431  and  _432
REMARK  179  A    between atoms: _431  and  _434
REMARK  180  A    between atoms: _434  and  _435
REMARK  181  A    between atoms: _435  and  _436
REMARK  182  A    between atoms: _438  and  _440
REMARK  183  A    between atoms: _440  and  _441
REMARK  184  A    between atoms: _440  and  _443
REMARK  185  A    between atoms: _443  and  _444
REMARK  186  A    between atoms: _450  and  _452
REMARK  187  A    between atoms: _452  and  _453
REMARK  188  A    between atoms: _452  and  _455
REMARK  189  A    between atoms: _455  and  _456
REMARK  190  A    between atoms: _459  and  _461
REMARK  191  A    between atoms: _461  and  _462
REMARK  192  A    between atoms: _461  and  _464
REMARK  193  A    between atoms: _464  and  _465
REMARK  194  A    between atoms: _465  and  _466
REMARK  195  A    between atoms: _471  and  _473
REMARK  196  A    between atoms: _473  and  _474
REMARK  197  A    between atoms: _473  and  _476
REMARK  198  A    between atoms: _476  and  _477
REMARK  199  A    between atoms: _477  and  _478
REMARK  200  A    between atoms: _478  and  _479
REMARK  201  A    between atoms: _479  and  _480
REMARK  202  A    between atoms: _484  and  _486
REMARK  203  A    between atoms: _486  and  _487
REMARK  204  A    between atoms: _486  and  _489
REMARK  205  A    between atoms: _489  and  _490
REMARK  206  A    between atoms: _493  and  _495
REMARK  207  A    between atoms: _495  and  _496
REMARK  208  A    between atoms: _495  and  _498
REMARK  209  A    between atoms: _498  and  _499
REMARK  210  A    between atoms: _504  and  _506
REMARK  211  A    between atoms: _506  and  _507
REMARK  212  A    between atoms: _506  and  _509
REMARK  213  A    between atoms: _509  and  _510
REMARK  214  A    between atoms: _513  and  _515
REMARK  215  A    between atoms: _515  and  _516
REMARK  216  A    between atoms: _515  and  _518
REMARK  217  A    between atoms: _518  and  _519
REMARK  218  A    between atoms: _519  and  _520
REMARK  219  A    between atoms: _520  and  _521
REMARK  220  A    between atoms: _530  and  _532
REMARK  221  A    between atoms: _532  and  _533
REMARK  222  A    between atoms: _532  and  _535
REMARK  223  A    between atoms: _535  and  _536
REMARK  224  A    between atoms: _539  and  _541
REMARK  225  A    between atoms: _541  and  _542
REMARK  226  A    between atoms: _541  and  _544
REMARK  227  A    between atoms: _544  and  _545
REMARK  228  A    between atoms: _545  and  _546
REMARK  229  A    between atoms: _549  and  _551
REMARK  230  A    between atoms: _551  and  _552
REMARK  231  A    between atoms: _551  and  _554
REMARK  232  A    between atoms: _554  and  _555
REMARK  233  A    between atoms: _561  and  _563
REMARK  234  A    between atoms: _563  and  _564
REMARK  235  A    between atoms: _563  and  _566
REMARK  236  A    between atoms: _566  and  _567
REMARK  237  A    between atoms: _571  and  _572
REMARK  238  A    between atoms: _577  and  _579
REMARK  239  A    between atoms: _579  and  _580
REMARK  240  A    between atoms: _579  and  _582
REMARK  241  A    between atoms: _582  and  _583
REMARK  242  A    between atoms: _583  and  _584
REMARK  243  A    between atoms: _589  and  _591
REMARK  244  A    between atoms: _591  and  _592
REMARK  245  A    between atoms: _591  and  _594
REMARK  246  A    between atoms: _597  and  _599
REMARK  247  A    between atoms: _599  and  _600
REMARK  248  A    between atoms: _599  and  _602
REMARK  249  A    between atoms: _602  and  _603
REMARK  250  A    between atoms: _603  and  _604
REMARK  251  A    between atoms: _606  and  _608
REMARK  252  A    between atoms: _608  and  _609
REMARK  253  A    between atoms: _612  and  _614
REMARK  254  A    between atoms: _614  and  _615
REMARK  255  A    between atoms: _614  and  _617
REMARK  256  A    between atoms: _617  and  _618
REMARK  257  A    between atoms: _621  and  _623
REMARK  258  A    between atoms: _623  and  _624
REMARK  259  A    between atoms: _627  and  _629
REMARK  260  A    between atoms: _629  and  _630
REMARK  261  A    between atoms: _629  and  _632
REMARK  262  A    between atoms: _632  and  _633
REMARK  263  A    between atoms: _636  and  _638
REMARK  264  A    between atoms: _638  and  _639
REMARK  265  A    between atoms: _638  and  _641
REMARK  266  A    between atoms: _641  and  _642
REMARK  267  A    between atoms: _645  and  _647
REMARK  268  A    between atoms: _647  and  _648
REMARK  269  A    between atoms: _647  and  _650
REMARK  270  A    between atoms: _650  and  _651
REMARK  271  A    between atoms: _654  and  _656
REMARK  272  A    between atoms: _656  and  _657
REMARK  273  A    between atoms: _656  and  _659
REMARK  274  A    between atoms: _659  and  _660
REMARK  275  A    between atoms: _660  and  _661
REMARK  276  A    between atoms: _666  and  _668
REMARK  277  A    between atoms: _668  and  _669
REMARK  278  A    between atoms: _672  and  _674
REMARK  279  A    between atoms: _674  and  _675
REMARK  280  A    between atoms: _674  and  _677
REMARK  281  A    between atoms: _680  and  _682
REMARK  282  A    between atoms: _682  and  _683
REMARK  283  A    between atoms: _682  and  _685
REMARK  284  A    between atoms: _685  and  _686
REMARK  285  A    between atoms: _689  and  _691
REMARK  286  A    between atoms: _691  and  _692
REMARK  287  A    between atoms: _691  and  _694
REMARK  288  A    between atoms: _694  and  _695
REMARK  289  A    between atoms: _695  and  _696
REMARK                            x       y       z     vdW  Elec       q    Type
REMARK                         _______ _______ _______ _____ _____    ______ ____
ROOT
ATOM      1  CA  ILE A   1       9.919  69.354  40.400  0.00  0.00    +0.133 C 
ENDROOT
BRANCH   1   2
ATOM      2  N   ILE A   1      10.191  70.139  39.206  0.00  0.00    -0.239 NA
ATOM      3  H   ILE A   1      11.066  69.980  38.667  0.00  0.00    +0.142 HD
ENDBRANCH   1   2
BRANCH   1   4
ATOM      4  C   ILE A   1       9.902  70.238  41.653  0.00  0.00    +0.224 C 
ATOM      5  O   ILE A   1       9.021  70.095  42.519  0.00  0.00    -0.287 OA
ENDBRANCH   1   4
BRANCH   1   6
ATOM      6  CB  ILE A   1      10.902  68.164  40.550  0.00  0.00    +0.023 C 
ATOM      7  CG2 ILE A   1      10.729  67.511  41.930  0.00  0.00    +0.002 C 
BRANCH   6   8
ATOM      8  CG1 ILE A   1      10.783  67.167  39.378  0.00  0.00    +0.002 C 
ATOM      9  CD1 ILE A   1       9.451  66.430  39.175  0.00  0.00    +0.000 C 
ENDBRANCH   6   8
ENDBRANCH   1   6
TORSDOF 4
REMARK  Name = ../refined-set-2016/3vjc/3vjc_pocket.pdb
REMARK  289 active torsions:
REMARK  status: ('A' for Active; 'I' for Inactive)
REMARK    1  A    between atoms: _1  and  _3
REMARK    2  A    between atoms: _3  and  _4
REMARK    3  A    between atoms: _3  and  _6
REMARK    4  A    between atoms: _6  and  _7
REMARK    5  A    between atoms: _10  and  _12
REMARK    6  A    between atoms: _12  and  _13
REMARK    7  A    between atoms: _12  and  _15
REMARK    8  A    between atoms: _15  and  _16
REMARK    9  A    between atoms: _21  and  _23
REMARK   10  A    between atoms: _23  and  _24
REMARK   11  A    between atoms: _23  and  _26
REMARK   12  A    between atoms: _26  and  _27
REMARK   13  A    between atoms: _27  and  _28
REMARK   14  A    between atoms: _33  and  _35
REMARK   15  A    between atoms: _35  and  _36
REMARK   16  A    between atoms: _35  and  _38
REMARK   17  A    between atoms: _38  and  _39
REMARK   18  A    between atoms: _42  and  _44
REMARK   19  A    between atoms: _44  and  _45
REMARK   20  A    between atoms: _44  and  _47
REMARK   21  A    between atoms: _47  and  _48
REMARK   22  A    between atoms: _50  and  _52
REMARK   23  A    between atoms: _52  and  _53
REMARK   24  A    between atoms: _52  and  _55
REMARK   25  A    between atoms: _55  and  _56
REMARK   26  A    between atoms: _56  and  _57
REMARK   27  A    between atoms: _57  and  _58
REMARK   28  A    between atoms: _67  and  _69
REMARK   29  A    between atoms: _69  and  _70
REMARK   30  A    between atoms: _69  and  _72
REMARK   31  A    between atoms: _72  and  _73
REMARK   32  A    between atoms: _75  and  _77
REMARK   33  A    between atoms: _77  and  _78
REMARK   34  A    between atoms: _77  and  _80
REMARK   35  A    between atoms: _80  and  _81
REMARK   36  A    between atoms: _87  and  _89
REMARK   37  A    between atoms: _89  and  _90
REMARK   38  A    between atoms: _93  and  _95
REMARK   39  A    between atoms: _95  and  _96
REMARK   40  A    between atoms: _99  and  _101
REMARK   41  A    between atoms: _101  and  _102
REMARK   42  A    between atoms: _101  and  _104
REMARK   43  A    between atoms: _107  and  _109
REMARK   44  A    between atoms: _109  and  _110
REMARK   45  A    between atoms: _109  and  _112
REMARK   46  A    between atoms: _112  and  _113
REMARK   47  A    between atoms: _116  and  _118
REMARK   48  A    between atoms: _118  and  _119
REMARK   49  A    between atoms: _118  and  _121
REMARK   50  A    between atoms: _121  and  _122
REMARK   51  A    between atoms: _125  and  _127
REMARK   52  A    between atoms: _127  and  _128
REMARK   53  A    between atoms: _131  and  _133
REMARK   54  A    between atoms: _133  and  _134
REMARK   55  A    between atoms: _133  and  _136
REMARK   56  A    between atoms: _139  and  _141
REMARK   57  A    between atoms: _141  and  _142
REMARK   58  A    between atoms: _141  and  _144
REMARK   59  A    between atoms: _146  and  _148
REMARK   60  A    between atoms: _148  and  _149
REMARK   61  A    between atoms: _148  and  _151
REMARK   62  A    between atoms: _151  and  _152
REMARK   63  A    between atoms: _155  and  _157
REMARK   64  A    between atoms: _157  and  _158
REMARK   65  A    between atoms: _157  and  _160
REMARK   66  A    between atoms: _160  and  _161
REMARK   67  A    between atoms: _167  and  _169
REMARK   68  A    between atoms: _169  and  _170
REMARK   69  A    between atoms: _169  and  _172
REMARK   70  A    between atoms: _172  and  _173
REMARK   71  A    between atoms: _178  and  _179
REMARK   72  A    between atoms: _181  and  _183
REMARK   73  A    between atoms: _183  and  _184
REMARK   74  A    between atoms: _183  and  _186
REMARK   75  A    between atoms: _186  and  _187
REMARK   76  A    between atoms: _190  and  _192
REMARK   77  A    between atoms: _192  and  _193
REMARK   78  A    between atoms: _192  and  _195
REMARK   79  A    between atoms: _198  and  _200
REMARK   80  A    between atoms: _200  and  _201
REMARK   81  A    between atoms: _200  and  _203
REMARK   82  A    between atoms: _203  and  _204
REMARK   83  A    between atoms: _207  and  _209
REMARK   84  A    between atoms: _209  and  _210
REMARK   85  A    between atoms: _209  and  _212
REMARK   86  A    between atoms: _212  and  _213
REMARK   87  A    between atoms: _213  and  _214
REMARK   88  A    between atoms: _214  and  _215
REMARK   89  A    between atoms: _224  and  _226
REMARK   90  A    between atoms: _226  and  _227
REMARK   91  A    between atoms: _230  and  _232
REMARK   92  A    between atoms: _232  and  _233
REMARK   93  A    between atoms: _232  and  _235
REMARK   94  A    between atoms: _235  and  _236
REMARK   95  A    between atoms: _239  and  _241
REMARK   96  A    between atoms: _241  and  _242
REMARK   97  A    between atoms: _241  and  _244
REMARK   98  A    between atoms: _244  and  _245
REMARK   99  A    between atoms: _248  and  _250
REMARK  100  A    between atoms: _250  and  _251
REMARK  101  A    between atoms: _250  and  _253
REMARK  102  A    between atoms: _253  and  _254
REMARK  103  A    between atoms: _257  and  _259
REMARK  104  A    between atoms: _259  and  _260
REMARK  105  A    between atoms: _259  and  _262
REMARK  106  A    between atoms: _262  and  _263
REMARK  107  A    between atoms: _263  and  _264
REMARK  108  A    between atoms: _267  and  _269
REMARK  109  A    between atoms: _269  and  _270
REMARK  110  A    between atoms: _269  and  _272
REMARK  111  A    between atoms: _272  and  _273
REMARK  112  A    between atoms: _276  and  _278
REMARK  113  A    between atoms: _278  and  _279
REMARK  114  A    between atoms: _278  and  _281
REMARK  115  A    between atoms: _281  and  _282
REMARK  116  A    between atoms: _282  and  _283
REMARK  117  A    between atoms: _283  and  _284
REMARK  118  A    between atoms: _284  and  _285
REMARK  119  A    between atoms: _289  and  _291
REMARK  120  A    between atoms: _291  and  _292
REMARK  121  A    between atoms: _291  and  _294
REMARK  122  A    between atoms: _294  and  _295
REMARK  123  A    between atoms: _298  and  _300
REMARK  124  A    between atoms: _300  and  _301
REMARK  125  A    between atoms: _300  and  _303
REMARK  126  A    between atoms: _303  and  _304
REMARK  127  A    between atoms: _307  and  _309
REMARK  128  A    between atoms: _309  and  _310
REMARK  129  A    between atoms: _309  and  _312
REMARK  130  A    between atoms: _312  and  _313
REMARK  131  A    between atoms: _313  and  _314
REMARK  132  A    between atoms: _316  and  _318
REMARK  133  A    between atoms: _318  and  _319
REMARK  134  A    between atoms: _318  and  _321
REMARK  135  A    between atoms: _321  and  _322
REMARK  136  A    between atoms: _322  and  _323
REMARK  137  A    between atoms: _325  and  _327
REMARK  138  A    between atoms: _327  and  _328
REMARK  139  A    between atoms: _327  and  _330
REMARK  140  A    between atoms: _330  and  _331
REMARK  141  A    between atoms: _336  and  _337
REMARK  142  A    between atoms: _339  and  _341
REMARK  143  A    between atoms: _341  and  _342
REMARK  144  A    between atoms: _341  and  _344
REMARK  145  A    between atoms: _344  and  _345
REMARK  146  A    between atoms: _350  and  _351
REMARK  147  A    between atoms: _353  and  _355
REMARK  148  A    between atoms: _355  and  _356
REMARK  149  A    between atoms: _355  and  _358
REMARK  150  A    between atoms: _361  and  _363
REMARK  151  A    between atoms: _363  and  _364
REMARK  152  A    between atoms: _367  and  _369
REMARK  153  A    between atoms: _369  and  _370
REMARK  154  A    between atoms: _372  and  _374
REMARK  155  A    between atoms: _374  and  _375
REMARK  156  A    between atoms: _374  and  _377
REMARK  157  A    between atoms: _377  and  _378
REMARK  158  A    between atoms: _381  and  _383
REMARK  159  A    between atoms: _383  and  _384
REMARK  160  A    between atoms: _383  and  _386
REMARK  161  A    between atoms: _389  and  _391
REMARK  162  A    between atoms: _391  and  _392
REMARK  163  A    between atoms: _394  and  _396
REMARK  164  A    between atoms: _396  and  _397
REMARK  165  A    between atoms: _399  and  _401
REMARK  166  A    between atoms: _401  and  _402
REMARK  167  A    between atoms: _401  and  _404
REMARK  168  A    between atoms: _404  and  _405
REMARK  169  A    between atoms: _408  and  _410
REMARK  170  A    between atoms: _410  and  _411
REMARK  171  A    between atoms: _410  and  _413
REMARK  172  A    between atoms: _413  and  _414
REMARK  173  A    between atoms: _417  and  _419
REMARK  174  A    between atoms: _419  and  _420
REMARK  175  A    between atoms: _419  and  _422
REMARK  176  A    between atoms: _422  and  _423
REMARK  177  A    between atoms: _429  and  _431
REMARK  178  A    between atoms: _431  and  _432
REMARK  179  A    between atoms: _431  and  _434
REMARK  180  A    between atoms: _434  and  _435
REMARK  181  A    between atoms: _435  and  _436
REMARK  182  A    between atoms: _438  and  _440
REMARK  183  A    between atoms: _440  and  _441
REMARK  184  A    between atoms: _440  and  _443
REMARK  185  A    between atoms: _443  and  _444
REMARK  186  A    between atoms: _450  and  _452
REMARK  187  A    between atoms: _452  and  _453
REMARK  188  A    between atoms: _452  and  _455
REMARK  189  A    between atoms: _455  and  _456
REMARK  190  A    between atoms: _459  and  _461
REMARK  191  A    between atoms: _461  and  _462
REMARK  192  A    between atoms: _461  and  _464
REMARK  193  A    between atoms: _464  and  _465
REMARK  194  A    between atoms: _465  and  _466
REMARK  195  A    between atoms: _471  and  _473
REMARK  196  A    between atoms: _473  and  _474
REMARK  197  A    between atoms: _473  and  _476
REMARK  198  A    between atoms: _476  and  _477
REMARK  199  A    between atoms: _477  and  _478
REMARK  200  A    between atoms: _478  and  _479
REMARK  201  A    between atoms: _479  and  _480
REMARK  202  A    between atoms: _484  and  _486
REMARK  203  A    between atoms: _486  and  _487
REMARK  204  A    between atoms: _486  and  _489
REMARK  205  A    between atoms: _489  and  _490
REMARK  206  A    between atoms: _493  and  _495
REMARK  207  A    between atoms: _495  and  _496
REMARK  208  A    between atoms: _495  and  _498
REMARK  209  A    between atoms: _498  and  _499
REMARK  210  A    between atoms: _504  and  _506
REMARK  211  A    between atoms: _506  and  _507
REMARK  212  A    between atoms: _506  and  _509
REMARK  213  A    between atoms: _509  and  _510
REMARK  214  A    between atoms: _513  and  _515
REMARK  215  A    between atoms: _515  and  _516
REMARK  216  A    between atoms: _515  and  _518
REMARK  217  A    between atoms: _518  and  _519
REMARK  218  A    between atoms: _519  and  _520
REMARK  219  A    between atoms: _520  and  _521
REMARK  220  A    between atoms: _530  and  _532
REMARK  221  A    between atoms: _532  and  _533
REMARK  222  A    between atoms: _532  and  _535
REMARK  223  A    between atoms: _535  and  _536
REMARK  224  A    between atoms: _539  and  _541
REMARK  225  A    between atoms: _541  and  _542
REMARK  226  A    between atoms: _541  and  _544
REMARK  227  A    between atoms: _544  and  _545
REMARK  228  A    between atoms: _545  and  _546
REMARK  229  A    between atoms: _549  and  _551
REMARK  230  A    between atoms: _551  and  _552
REMARK  231  A    between atoms: _551  and  _554
REMARK  232  A    between atoms: _554  and  _555
REMARK  233  A    between atoms: _561  and  _563
REMARK  234  A    between atoms: _563  and  _564
REMARK  235  A    between atoms: _563  and  _566
REMARK  236  A    between atoms: _566  and  _567
REMARK  237  A    between atoms: _571  and  _572
REMARK  238  A    between atoms: _577  and  _579
REMARK  239  A    between atoms: _579  and  _580
REMARK  240  A    between atoms: _579  and  _582
REMARK  241  A    between atoms: _582  and  _583
REMARK  242  A    between atoms: _583  and  _584
REMARK  243  A    between atoms: _589  and  _591
REMARK  244  A    between atoms: _591  and  _592
REMARK  245  A    between atoms: _591  and  _594
REMARK  246  A    between atoms: _597  and  _599
REMARK  247  A    between atoms: _599  and  _600
REMARK  248  A    between atoms: _599  and  _602
REMARK  249  A    between atoms: _602  and  _603
REMARK  250  A    between atoms: _603  and  _604
REMARK  251  A    between atoms: _606  and  _608
REMARK  252  A    between atoms: _608  and  _609
REMARK  253  A    between atoms: _612  and  _614
REMARK  254  A    between atoms: _614  and  _615
REMARK  255  A    between atoms: _614  and  _617
REMARK  256  A    between atoms: _617  and  _618
REMARK  257  A    between atoms: _621  and  _623
REMARK  258  A    between atoms: _623  and  _624
REMARK  259  A    between atoms: _627  and  _629
REMARK  260  A    between atoms: _629  and  _630
REMARK  261  A    between atoms: _629  and  _632
REMARK  262  A    between atoms: _632  and  _633
REMARK  263  A    between atoms: _636  and  _638
REMARK  264  A    between atoms: _638  and  _639
REMARK  265  A    between atoms: _638  and  _641
REMARK  266  A    between atoms: _641  and  _642
REMARK  267  A    between atoms: _645  and  _647
REMARK  268  A    between atoms: _647  and  _648
REMARK  269  A    between atoms: _647  and  _650
REMARK  270  A    between atoms: _650  and  _651
REMARK  271  A    between atoms: _654  and  _656
REMARK  272  A    between atoms: _656  and  _657
REMARK  273  A    between atoms: _656  and  _659
REMARK  274  A    between atoms: _659  and  _660
REMARK  275  A    between atoms: _660  and  _661
REMARK  276  A    between atoms: _666  and  _668
REMARK  277  A    between atoms: _668  and  _669
REMARK  278  A    between atoms: _672  and  _674
REMARK  279  A    between atoms: _674  and  _675
REMARK  280  A    between atoms: _674  and  _677
REMARK  281  A    between atoms: _680  and  _682
REMARK  282  A    between atoms: _682  and  _683
REMARK  283  A    between atoms: _682  and  _685
REMARK  284  A    between atoms: _685  and  _686
REMARK  285  A    between atoms: _689  and  _691
REMARK  286  A    between atoms: _691  and  _692
REMARK  287  A    between atoms: _691  and  _694
REMARK  288  A    between atoms: _694  and  _695
REMARK  289  A    between atoms: _695  and  _696
REMARK                            x       y       z     vdW  Elec       q    Type
REMARK                         _______ _______ _______ _____ _____    ______ ____
ROOT
ATOM      1  CA  MET A   1       7.023  70.017  45.465  0.00  0.00    +0.134 C 
ENDROOT
BRANCH   1   2
ATOM      2  N   MET A   1       6.804  70.438  44.086  0.00  0.00    -0.239 NA
ATOM      3  H   MET A   1       7.597  70.407  43.414  0.00  0.00    +0.142 HD
ENDBRANCH   1   2
BRANCH   1   4
ATOM      4  C   MET A   1       6.760  71.132  46.490  0.00  0.00    +0.224 C 
ATOM      5  O   MET A   1       6.172  70.893  47.552  0.00  0.00    -0.287 OA
ENDBRANCH   1   4
BRANCH   1   6
ATOM      6  CB  MET A   1       8.449  69.478  45.635  0.00  0.00    +0.037 C 
BRANCH   6   7
ATOM      7  CG  MET A   1       8.749  68.953  47.047  0.00  0.00    +0.059 C 
BRANCH   7   8
ATOM      8  SD  MET A   1      10.317  68.043  47.141  0.00  0.00    -0.139 S 
ATOM      9  CE  MET A   1      10.162  67.057  45.635  0.00  0.00    +0.069 C 
ENDBRANCH   7   8
ENDBRANCH   6   7
ENDBRANCH   1   6
TORSDOF 5
REMARK  Name = ../refined-set-2016/3vjc/3vjc_pocket.pdb
REMARK  289 active torsions:
REMARK  status: ('A' for Active; 'I' for Inactive)
REMARK    1  A    between atoms: _1  and  _3
REMARK    2  A    between atoms: _3  and  _4
REMARK    3  A    between atoms: _3  and  _6
REMARK    4  A    between atoms: _6  and  _7
REMARK    5  A    between atoms: _10  and  _12
REMARK    6  A    between atoms: _12  and  _13
REMARK    7  A    between atoms: _12  and  _15
REMARK    8  A    between atoms: _15  and  _16
REMARK    9  A    between atoms: _21  and  _23
REMARK   10  A    between atoms: _23  and  _24
REMARK   11  A    between atoms: _23  and  _26
REMARK   12  A    between atoms: _26  and  _27
REMARK   13  A    between atoms: _27  and  _28
REMARK   14  A    between atoms: _33  and  _35
REMARK   15  A    between atoms: _35  and  _36
REMARK   16  A    between atoms: _35  and  _38
REMARK   17  A    between atoms: _38  and  _39
REMARK   18  A    between atoms: _42  and  _44
REMARK   19  A    between atoms: _44  and  _45
REMARK   20  A    between atoms: _44  and  _47
REMARK   21  A    between atoms: _47  and  _48
REMARK   22  A    between atoms: _50  and  _52
REMARK   23  A    between atoms: _52  and  _53
REMARK   24  A    between atoms: _52  and  _55
REMARK   25  A    between atoms: _55  and  _56
REMARK   26  A    between atoms: _56  and  _57
REMARK   27  A    between atoms: _57  and  _58
REMARK   28  A    between atoms: _67  and  _69
REMARK   29  A    between atoms: _69  and  _70
REMARK   30  A    between atoms: _69  and  _72
REMARK   31  A    between atoms: _72  and  _73
REMARK   32  A    between atoms: _75  and  _77
REMARK   33  A    between atoms: _77  and  _78
REMARK   34  A    between atoms: _77  and  _80
REMARK   35  A    between atoms: _80  and  _81
REMARK   36  A    between atoms: _87  and  _89
REMARK   37  A    between atoms: _89  and  _90
REMARK   38  A    between atoms: _93  and  _95
REMARK   39  A    between atoms: _95  and  _96
REMARK   40  A    between atoms: _99  and  _101
REMARK   41  A    between atoms: _101  and  _102
REMARK   42  A    between atoms: _101  and  _104
REMARK   43  A    between atoms: _107  and  _109
REMARK   44  A    between atoms: _109  and  _110
REMARK   45  A    between atoms: _109  and  _112
REMARK   46  A    between atoms: _112  and  _113
REMARK   47  A    between atoms: _116  and  _118
REMARK   48  A    between atoms: _118  and  _119
REMARK   49  A    between atoms: _118  and  _121
REMARK   50  A    between atoms: _121  and  _122
REMARK   51  A    between atoms: _125  and  _127
REMARK   52  A    between atoms: _127  and  _128
REMARK   53  A    between atoms: _131  and  _133
REMARK   54  A    between atoms: _133  and  _134
REMARK   55  A    between atoms: _133  and  _136
REMARK   56  A    between atoms: _139  and  _141
REMARK   57  A    between atoms: _141  and  _142
REMARK   58  A    between atoms: _141  and  _144
REMARK   59  A    between atoms: _146  and  _148
REMARK   60  A    between atoms: _148  and  _149
REMARK   61  A    between atoms: _148  and  _151
REMARK   62  A    between atoms: _151  and  _152
REMARK   63  A    between atoms: _155  and  _157
REMARK   64  A    between atoms: _157  and  _158
REMARK   65  A    between atoms: _157  and  _160
REMARK   66  A    between atoms: _160  and  _161
REMARK   67  A    between atoms: _167  and  _169
REMARK   68  A    between atoms: _169  and  _170
REMARK   69  A    between atoms: _169  and  _172
REMARK   70  A    between atoms: _172  and  _173
REMARK   71  A    between atoms: _178  and  _179
REMARK   72  A    between atoms: _181  and  _183
REMARK   73  A    between atoms: _183  and  _184
REMARK   74  A    between atoms: _183  and  _186
REMARK   75  A    between atoms: _186  and  _187
REMARK   76  A    between atoms: _190  and  _192
REMARK   77  A    between atoms: _192  and  _193
REMARK   78  A    between atoms: _192  and  _195
REMARK   79  A    between atoms: _198  and  _200
REMARK   80  A    between atoms: _200  and  _201
REMARK   81  A    between atoms: _200  and  _203
REMARK   82  A    between atoms: _203  and  _204
REMARK   83  A    between atoms: _207  and  _209
REMARK   84  A    between atoms: _209  and  _210
REMARK   85  A    between atoms: _209  and  _212
REMARK   86  A    between atoms: _212  and  _213
REMARK   87  A    between atoms: _213  and  _214
REMARK   88  A    between atoms: _214  and  _215
REMARK   89  A    between atoms: _224  and  _226
REMARK   90  A    between atoms: _226  and  _227
REMARK   91  A    between atoms: _230  and  _232
REMARK   92  A    between atoms: _232  and  _233
REMARK   93  A    between atoms: _232  and  _235
REMARK   94  A    between atoms: _235  and  _236
REMARK   95  A    between atoms: _239  and  _241
REMARK   96  A    between atoms: _241  and  _242
REMARK   97  A    between atoms: _241  and  _244
REMARK   98  A    between atoms: _244  and  _245
REMARK   99  A    between atoms: _248  and  _250
REMARK  100  A    between atoms: _250  and  _251
REMARK  101  A    between atoms: _250  and  _253
REMARK  102  A    between atoms: _253  and  _254
REMARK  103  A    between atoms: _257  and  _259
REMARK  104  A    between atoms: _259  and  _260
REMARK  105  A    between atoms: _259  and  _262
REMARK  106  A    between atoms: _262  and  _263
REMARK  107  A    between atoms: _263  and  _264
REMARK  108  A    between atoms: _267  and  _269
REMARK  109  A    between atoms: _269  and  _270
REMARK  110  A    between atoms: _269  and  _272
REMARK  111  A    between atoms: _272  and  _273
REMARK  112  A    between atoms: _276  and  _278
REMARK  113  A    between atoms: _278  and  _279
REMARK  114  A    between atoms: _278  and  _281
REMARK  115  A    between atoms: _281  and  _282
REMARK  116  A    between atoms: _282  and  _283
REMARK  117  A    between atoms: _283  and  _284
REMARK  118  A    between atoms: _284  and  _285
REMARK  119  A    between atoms: _289  and  _291
REMARK  120  A    between atoms: _291  and  _292
REMARK  121  A    between atoms: _291  and  _294
REMARK  122  A    between atoms: _294  and  _295
REMARK  123  A    between atoms: _298  and  _300
REMARK  124  A    between atoms: _300  and  _301
REMARK  125  A    between atoms: _300  and  _303
REMARK  126  A    between atoms: _303  and  _304
REMARK  127  A    between atoms: _307  and  _309
REMARK  128  A    between atoms: _309  and  _310
REMARK  129  A    between atoms: _309  and  _312
REMARK  130  A    between atoms: _312  and  _313
REMARK  131  A    between atoms: _313  and  _314
REMARK  132  A    between atoms: _316  and  _318
REMARK  133  A    between atoms: _318  and  _319
REMARK  134  A    between atoms: _318  and  _321
REMARK  135  A    between atoms: _321  and  _322
REMARK  136  A    between atoms: _322  and  _323
REMARK  137  A    between atoms: _325  and  _327
REMARK  138  A    between atoms: _327  and  _328
REMARK  139  A    between atoms: _327  and  _330
REMARK  140  A    between atoms: _330  and  _331
REMARK  141  A    between atoms: _336  and  _337
REMARK  142  A    between atoms: _339  and  _341
REMARK  143  A    between atoms: _341  and  _342
REMARK  144  A    between atoms: _341  and  _344
REMARK  145  A    between atoms: _344  and  _345
REMARK  146  A    between atoms: _350  and  _351
REMARK  147  A    between atoms: _353  and  _355
REMARK  148  A    between atoms: _355  and  _356
REMARK  149  A    between atoms: _355  and  _358
REMARK  150  A    between atoms: _361  and  _363
REMARK  151  A    between atoms: _363  and  _364
REMARK  152  A    between atoms: _367  and  _369
REMARK  153  A    between atoms: _369  and  _370
REMARK  154  A    between atoms: _372  and  _374
REMARK  155  A    between atoms: _374  and  _375
REMARK  156  A    between atoms: _374  and  _377
REMARK  157  A    between atoms: _377  and  _378
REMARK  158  A    between atoms: _381  and  _383
REMARK  159  A    between atoms: _383  and  _384
REMARK  160  A    between atoms: _383  and  _386
REMARK  161  A    between atoms: _389  and  _391
REMARK  162  A    between atoms: _391  and  _392
REMARK  163  A    between atoms: _394  and  _396
REMARK  164  A    between atoms: _396  and  _397
REMARK  165  A    between atoms: _399  and  _401
REMARK  166  A    between atoms: _401  and  _402
REMARK  167  A    between atoms: _401  and  _404
REMARK  168  A    between atoms: _404  and  _405
REMARK  169  A    between atoms: _408  and  _410
REMARK  170  A    between atoms: _410  and  _411
REMARK  171  A    between atoms: _410  and  _413
REMARK  172  A    between atoms: _413  and  _414
REMARK  173  A    between atoms: _417  and  _419
REMARK  174  A    between atoms: _419  and  _420
REMARK  175  A    between atoms: _419  and  _422
REMARK  176  A    between atoms: _422  and  _423
REMARK  177  A    between atoms: _429  and  _431
REMARK  178  A    between atoms: _431  and  _432
REMARK  179  A    between atoms: _431  and  _434
REMARK  180  A    between atoms: _434  and  _435
REMARK  181  A    between atoms: _435  and  _436
REMARK  182  A    between atoms: _438  and  _440
REMARK  183  A    between atoms: _440  and  _441
REMARK  184  A    between atoms: _440  and  _443
REMARK  185  A    between atoms: _443  and  _444
REMARK  186  A    between atoms: _450  and  _452
REMARK  187  A    between atoms: _452  and  _453
REMARK  188  A    between atoms: _452  and  _455
REMARK  189  A    between atoms: _455  and  _456
REMARK  190  A    between atoms: _459  and  _461
REMARK  191  A    between atoms: _461  and  _462
REMARK  192  A    between atoms: _461  and  _464
REMARK  193  A    between atoms: _464  and  _465
REMARK  194  A    between atoms: _465  and  _466
REMARK  195  A    between atoms: _471  and  _473
REMARK  196  A    between atoms: _473  and  _474
REMARK  197  A    between atoms: _473  and  _476
REMARK  198  A    between atoms: _476  and  _477
REMARK  199  A    between atoms: _477  and  _478
REMARK  200  A    between atoms: _478  and  _479
REMARK  201  A    between atoms: _479  and  _480
REMARK  202  A    between atoms: _484  and  _486
REMARK  203  A    between atoms: _486  and  _487
REMARK  204  A    between atoms: _486  and  _489
REMARK  205  A    between atoms: _489  and  _490
REMARK  206  A    between atoms: _493  and  _495
REMARK  207  A    between atoms: _495  and  _496
REMARK  208  A    between atoms: _495  and  _498
REMARK  209  A    between atoms: _498  and  _499
REMARK  210  A    between atoms: _504  and  _506
REMARK  211  A    between atoms: _506  and  _507
REMARK  212  A    between atoms: _506  and  _509
REMARK  213  A    between atoms: _509  and  _510
REMARK  214  A    between atoms: _513  and  _515
REMARK  215  A    between atoms: _515  and  _516
REMARK  216  A    between atoms: _515  and  _518
REMARK  217  A    between atoms: _518  and  _519
REMARK  218  A    between atoms: _519  and  _520
REMARK  219  A    between atoms: _520  and  _521
REMARK  220  A    between atoms: _530  and  _532
REMARK  221  A    between atoms: _532  and  _533
REMARK  222  A    between atoms: _532  and  _535
REMARK  223  A    between atoms: _535  and  _536
REMARK  224  A    between atoms: _539  and  _541
REMARK  225  A    between atoms: _541  and  _542
REMARK  226  A    between atoms: _541  and  _544
REMARK  227  A    between atoms: _544  and  _545
REMARK  228  A    between atoms: _545  and  _546
REMARK  229  A    between atoms: _549  and  _551
REMARK  230  A    between atoms: _551  and  _552
REMARK  231  A    between atoms: _551  and  _554
REMARK  232  A    between atoms: _554  and  _555
REMARK  233  A    between atoms: _561  and  _563
REMARK  234  A    between atoms: _563  and  _564
REMARK  235  A    between atoms: _563  and  _566
REMARK  236  A    between atoms: _566  and  _567
REMARK  237  A    between atoms: _571  and  _572
REMARK  238  A    between atoms: _577  and  _579
REMARK  239  A    between atoms: _579  and  _580
REMARK  240  A    between atoms: _579  and  _582
REMARK  241  A    between atoms: _582  and  _583
REMARK  242  A    between atoms: _583  and  _584
REMARK  243  A    between atoms: _589  and  _591
REMARK  244  A    between atoms: _591  and  _592
REMARK  245  A    between atoms: _591  and  _594
REMARK  246  A    between atoms: _597  and  _599
REMARK  247  A    between atoms: _599  and  _600
REMARK  248  A    between atoms: _599  and  _602
REMARK  249  A    between atoms: _602  and  _603
REMARK  250  A    between atoms: _603  and  _604
REMARK  251  A    between atoms: _606  and  _608
REMARK  252  A    between atoms: _608  and  _609
REMARK  253  A    between atoms: _612  and  _614
REMARK  254  A    between atoms: _614  and  _615
REMARK  255  A    between atoms: _614  and  _617
REMARK  256  A    between atoms: _617  and  _618
REMARK  257  A    between atoms: _621  and  _623
REMARK  258  A    between atoms: _623  and  _624
REMARK  259  A    between atoms: _627  and  _629
REMARK  260  A    between atoms: _629  and  _630
REMARK  261  A    between atoms: _629  and  _632
REMARK  262  A    between atoms: _632  and  _633
REMARK  263  A    between atoms: _636  and  _638
REMARK  264  A    between atoms: _638  and  _639
REMARK  265  A    between atoms: _638  and  _641
REMARK  266  A    between atoms: _641  and  _642
REMARK  267  A    between atoms: _645  and  _647
REMARK  268  A    between atoms: _647  and  _648
REMARK  269  A    between atoms: _647  and  _650
REMARK  270  A    between atoms: _650  and  _651
REMARK  271  A    between atoms: _654  and  _656
REMARK  272  A    between atoms: _656  and  _657
REMARK  273  A    between atoms: _656  and  _659
REMARK  274  A    between atoms: _659  and  _660
REMARK  275  A    between atoms: _660  and  _661
REMARK  276  A    between atoms: _666  and  _668
REMARK  277  A    between atoms: _668  and  _669
REMARK  278  A    between atoms: _672  and  _674
REMARK  279  A    between atoms: _674  and  _675
REMARK  280  A    between atoms: _674  and  _677
REMARK  281  A    between atoms: _680  and  _682
REMARK  282  A    between atoms: _682  and  _683
REMARK  283  A    between atoms: _682  and  _685
REMARK  284  A    between atoms: _685  and  _686
REMARK  285  A    between atoms: _689  and  _691
REMARK  286  A    between atoms: _691  and  _692
REMARK  287  A    between atoms: _691  and  _694
REMARK  288  A    between atoms: _694  and  _695
REMARK  289  A    between atoms: _695  and  _696
REMARK                            x       y       z     vdW  Elec       q    Type
REMARK                         _______ _______ _______ _____ _____    ______ ____
ROOT
ATOM      1  CA  MET A   1       4.781  70.935  50.900  0.00  0.00    +0.134 C 
ENDROOT
BRANCH   1   2
ATOM      2  N   MET A   1       4.271  70.805  49.535  0.00  0.00    -0.239 NA
ATOM      3  H   MET A   1       4.901  70.998  48.731  0.00  0.00    +0.142 HD
ENDBRANCH   1   2
BRANCH   1   4
ATOM      4  C   MET A   1       4.029  72.039  51.631  0.00  0.00    +0.224 C 
ATOM      5  O   MET A   1       3.686  71.878  52.816  0.00  0.00    -0.287 OA
ENDBRANCH   1   4
BRANCH   1   6
ATOM      6  CB  MET A   1       6.282  71.235  50.894  0.00  0.00    +0.037 C 
BRANCH   6   7
ATOM      7  CG  MET A   1       7.152  70.022  50.516  0.00  0.00    +0.059 C 
BRANCH   7   8
ATOM      8  SD  MET A   1       8.857  70.629  50.487  0.00  0.00    -0.139 S 
ATOM      9  CE  MET A   1       9.790  69.109  50.681  0.00  0.00    +0.069 C 
ENDBRANCH   7   8
ENDBRANCH   6   7
ENDBRANCH   1   6
TORSDOF 5
REMARK  Name = ../refined-set-2016/3vjc/3vjc_pocket.pdb
REMARK  289 active torsions:
REMARK  status: ('A' for Active; 'I' for Inactive)
REMARK    1  A    between atoms: _1  and  _3
REMARK    2  A    between atoms: _3  and  _4
REMARK    3  A    between atoms: _3  and  _6
REMARK    4  A    between atoms: _6  and  _7
REMARK    5  A    between atoms: _10  and  _12
REMARK    6  A    between atoms: _12  and  _13
REMARK    7  A    between atoms: _12  and  _15
REMARK    8  A    between atoms: _15  and  _16
REMARK    9  A    between atoms: _21  and  _23
REMARK   10  A    between atoms: _23  and  _24
REMARK   11  A    between atoms: _23  and  _26
REMARK   12  A    between atoms: _26  and  _27
REMARK   13  A    between atoms: _27  and  _28
REMARK   14  A    between atoms: _33  and  _35
REMARK   15  A    between atoms: _35  and  _36
REMARK   16  A    between atoms: _35  and  _38
REMARK   17  A    between atoms: _38  and  _39
REMARK   18  A    between atoms: _42  and  _44
REMARK   19  A    between atoms: _44  and  _45
REMARK   20  A    between atoms: _44  and  _47
REMARK   21  A    between atoms: _47  and  _48
REMARK   22  A    between atoms: _50  and  _52
REMARK   23  A    between atoms: _52  and  _53
REMARK   24  A    between atoms: _52  and  _55
REMARK   25  A    between atoms: _55  and  _56
REMARK   26  A    between atoms: _56  and  _57
REMARK   27  A    between atoms: _57  and  _58
REMARK   28  A    between atoms: _67  and  _69
REMARK   29  A    between atoms: _69  and  _70
REMARK   30  A    between atoms: _69  and  _72
REMARK   31  A    between atoms: _72  and  _73
REMARK   32  A    between atoms: _75  and  _77
REMARK   33  A    between atoms: _77  and  _78
REMARK   34  A    between atoms: _77  and  _80
REMARK   35  A    between atoms: _80  and  _81
REMARK   36  A    between atoms: _87  and  _89
REMARK   37  A    between atoms: _89  and  _90
REMARK   38  A    between atoms: _93  and  _95
REMARK   39  A    between atoms: _95  and  _96
REMARK   40  A    between atoms: _99  and  _101
REMARK   41  A    between atoms: _101  and  _102
REMARK   42  A    between atoms: _101  and  _104
REMARK   43  A    between atoms: _107  and  _109
REMARK   44  A    between atoms: _109  and  _110
REMARK   45  A    between atoms: _109  and  _112
REMARK   46  A    between atoms: _112  and  _113
REMARK   47  A    between atoms: _116  and  _118
REMARK   48  A    between atoms: _118  and  _119
REMARK   49  A    between atoms: _118  and  _121
REMARK   50  A    between atoms: _121  and  _122
REMARK   51  A    between atoms: _125  and  _127
REMARK   52  A    between atoms: _127  and  _128
REMARK   53  A    between atoms: _131  and  _133
REMARK   54  A    between atoms: _133  and  _134
REMARK   55  A    between atoms: _133  and  _136
REMARK   56  A    between atoms: _139  and  _141
REMARK   57  A    between atoms: _141  and  _142
REMARK   58  A    between atoms: _141  and  _144
REMARK   59  A    between atoms: _146  and  _148
REMARK   60  A    between atoms: _148  and  _149
REMARK   61  A    between atoms: _148  and  _151
REMARK   62  A    between atoms: _151  and  _152
REMARK   63  A    between atoms: _155  and  _157
REMARK   64  A    between atoms: _157  and  _158
REMARK   65  A    between atoms: _157  and  _160
REMARK   66  A    between atoms: _160  and  _161
REMARK   67  A    between atoms: _167  and  _169
REMARK   68  A    between atoms: _169  and  _170
REMARK   69  A    between atoms: _169  and  _172
REMARK   70  A    between atoms: _172  and  _173
REMARK   71  A    between atoms: _178  and  _179
REMARK   72  A    between atoms: _181  and  _183
REMARK   73  A    between atoms: _183  and  _184
REMARK   74  A    between atoms: _183  and  _186
REMARK   75  A    between atoms: _186  and  _187
REMARK   76  A    between atoms: _190  and  _192
REMARK   77  A    between atoms: _192  and  _193
REMARK   78  A    between atoms: _192  and  _195
REMARK   79  A    between atoms: _198  and  _200
REMARK   80  A    between atoms: _200  and  _201
REMARK   81  A    between atoms: _200  and  _203
REMARK   82  A    between atoms: _203  and  _204
REMARK   83  A    between atoms: _207  and  _209
REMARK   84  A    between atoms: _209  and  _210
REMARK   85  A    between atoms: _209  and  _212
REMARK   86  A    between atoms: _212  and  _213
REMARK   87  A    between atoms: _213  and  _214
REMARK   88  A    between atoms: _214  and  _215
REMARK   89  A    between atoms: _224  and  _226
REMARK   90  A    between atoms: _226  and  _227
REMARK   91  A    between atoms: _230  and  _232
REMARK   92  A    between atoms: _232  and  _233
REMARK   93  A    between atoms: _232  and  _235
REMARK   94  A    between atoms: _235  and  _236
REMARK   95  A    between atoms: _239  and  _241
REMARK   96  A    between atoms: _241  and  _242
REMARK   97  A    between atoms: _241  and  _244
REMARK   98  A    between atoms: _244  and  _245
REMARK   99  A    between atoms: _248  and  _250
REMARK  100  A    between atoms: _250  and  _251
REMARK  101  A    between atoms: _250  and  _253
REMARK  102  A    between atoms: _253  and  _254
REMARK  103  A    between atoms: _257  and  _259
REMARK  104  A    between atoms: _259  and  _260
REMARK  105  A    between atoms: _259  and  _262
REMARK  106  A    between atoms: _262  and  _263
REMARK  107  A    between atoms: _263  and  _264
REMARK  108  A    between atoms: _267  and  _269
REMARK  109  A    between atoms: _269  and  _270
REMARK  110  A    between atoms: _269  and  _272
REMARK  111  A    between atoms: _272  and  _273
REMARK  112  A    between atoms: _276  and  _278
REMARK  113  A    between atoms: _278  and  _279
REMARK  114  A    between atoms: _278  and  _281
REMARK  115  A    between atoms: _281  and  _282
REMARK  116  A    between atoms: _282  and  _283
REMARK  117  A    between atoms: _283  and  _284
REMARK  118  A    between atoms: _284  and  _285
REMARK  119  A    between atoms: _289  and  _291
REMARK  120  A    between atoms: _291  and  _292
REMARK  121  A    between atoms: _291  and  _294
REMARK  122  A    between atoms: _294  and  _295
REMARK  123  A    between atoms: _298  and  _300
REMARK  124  A    between atoms: _300  and  _301
REMARK  125  A    between atoms: _300  and  _303
REMARK  126  A    between atoms: _303  and  _304
REMARK  127  A    between atoms: _307  and  _309
REMARK  128  A    between atoms: _309  and  _310
REMARK  129  A    between atoms: _309  and  _312
REMARK  130  A    between atoms: _312  and  _313
REMARK  131  A    between atoms: _313  and  _314
REMARK  132  A    between atoms: _316  and  _318
REMARK  133  A    between atoms: _318  and  _319
REMARK  134  A    between atoms: _318  and  _321
REMARK  135  A    between atoms: _321  and  _322
REMARK  136  A    between atoms: _322  and  _323
REMARK  137  A    between atoms: _325  and  _327
REMARK  138  A    between atoms: _327  and  _328
REMARK  139  A    between atoms: _327  and  _330
REMARK  140  A    between atoms: _330  and  _331
REMARK  141  A    between atoms: _336  and  _337
REMARK  142  A    between atoms: _339  and  _341
REMARK  143  A    between atoms: _341  and  _342
REMARK  144  A    between atoms: _341  and  _344
REMARK  145  A    between atoms: _344  and  _345
REMARK  146  A    between atoms: _350  and  _351
REMARK  147  A    between atoms: _353  and  _355
REMARK  148  A    between atoms: _355  and  _356
REMARK  149  A    between atoms: _355  and  _358
REMARK  150  A    between atoms: _361  and  _363
REMARK  151  A    between atoms: _363  and  _364
REMARK  152  A    between atoms: _367  and  _369
REMARK  153  A    between atoms: _369  and  _370
REMARK  154  A    between atoms: _372  and  _374
REMARK  155  A    between atoms: _374  and  _375
REMARK  156  A    between atoms: _374  and  _377
REMARK  157  A    between atoms: _377  and  _378
REMARK  158  A    between atoms: _381  and  _383
REMARK  159  A    between atoms: _383  and  _384
REMARK  160  A    between atoms: _383  and  _386
REMARK  161  A    between atoms: _389  and  _391
REMARK  162  A    between atoms: _391  and  _392
REMARK  163  A    between atoms: _394  and  _396
REMARK  164  A    between atoms: _396  and  _397
REMARK  165  A    between atoms: _399  and  _401
REMARK  166  A    between atoms: _401  and  _402
REMARK  167  A    between atoms: _401  and  _404
REMARK  168  A    between atoms: _404  and  _405
REMARK  169  A    between atoms: _408  and  _410
REMARK  170  A    between atoms: _410  and  _411
REMARK  171  A    between atoms: _410  and  _413
REMARK  172  A    between atoms: _413  and  _414
REMARK  173  A    between atoms: _417  and  _419
REMARK  174  A    between atoms: _419  and  _420
REMARK  175  A    between atoms: _419  and  _422
REMARK  176  A    between atoms: _422  and  _423
REMARK  177  A    between atoms: _429  and  _431
REMARK  178  A    between atoms: _431  and  _432
REMARK  179  A    between atoms: _431  and  _434
REMARK  180  A    between atoms: _434  and  _435
REMARK  181  A    between atoms: _435  and  _436
REMARK  182  A    between atoms: _438  and  _440
REMARK  183  A    between atoms: _440  and  _441
REMARK  184  A    between atoms: _440  and  _443
REMARK  185  A    between atoms: _443  and  _444
REMARK  186  A    between atoms: _450  and  _452
REMARK  187  A    between atoms: _452  and  _453
REMARK  188  A    between atoms: _452  and  _455
REMARK  189  A    between atoms: _455  and  _456
REMARK  190  A    between atoms: _459  and  _461
REMARK  191  A    between atoms: _461  and  _462
REMARK  192  A    between atoms: _461  and  _464
REMARK  193  A    between atoms: _464  and  _465
REMARK  194  A    between atoms: _465  and  _466
REMARK  195  A    between atoms: _471  and  _473
REMARK  196  A    between atoms: _473  and  _474
REMARK  197  A    between atoms: _473  and  _476
REMARK  198  A    between atoms: _476  and  _477
REMARK  199  A    between atoms: _477  and  _478
REMARK  200  A    between atoms: _478  and  _479
REMARK  201  A    between atoms: _479  and  _480
REMARK  202  A    between atoms: _484  and  _486
REMARK  203  A    between atoms: _486  and  _487
REMARK  204  A    between atoms: _486  and  _489
REMARK  205  A    between atoms: _489  and  _490
REMARK  206  A    between atoms: _493  and  _495
REMARK  207  A    between atoms: _495  and  _496
REMARK  208  A    between atoms: _495  and  _498
REMARK  209  A    between atoms: _498  and  _499
REMARK  210  A    between atoms: _504  and  _506
REMARK  211  A    between atoms: _506  and  _507
REMARK  212  A    between atoms: _506  and  _509
REMARK  213  A    between atoms: _509  and  _510
REMARK  214  A    between atoms: _513  and  _515
REMARK  215  A    between atoms: _515  and  _516
REMARK  216  A    between atoms: _515  and  _518
REMARK  217  A    between atoms: _518  and  _519
REMARK  218  A    between atoms: _519  and  _520
REMARK  219  A    between atoms: _520  and  _521
REMARK  220  A    between atoms: _530  and  _532
REMARK  221  A    between atoms: _532  and  _533
REMARK  222  A    between atoms: _532  and  _535
REMARK  223  A    between atoms: _535  and  _536
REMARK  224  A    between atoms: _539  and  _541
REMARK  225  A    between atoms: _541  and  _542
REMARK  226  A    between atoms: _541  and  _544
REMARK  227  A    between atoms: _544  and  _545
REMARK  228  A    between atoms: _545  and  _546
REMARK  229  A    between atoms: _549  and  _551
REMARK  230  A    between atoms: _551  and  _552
REMARK  231  A    between atoms: _551  and  _554
REMARK  232  A    between atoms: _554  and  _555
REMARK  233  A    between atoms: _561  and  _563
REMARK  234  A    between atoms: _563  and  _564
REMARK  235  A    between atoms: _563  and  _566
REMARK  236  A    between atoms: _566  and  _567
REMARK  237  A    between atoms: _571  and  _572
REMARK  238  A    between atoms: _577  and  _579
REMARK  239  A    between atoms: _579  and  _580
REMARK  240  A    between atoms: _579  and  _582
REMARK  241  A    between atoms: _582  and  _583
REMARK  242  A    between atoms: _583  and  _584
REMARK  243  A    between atoms: _589  and  _591
REMARK  244  A    between atoms: _591  and  _592
REMARK  245  A    between atoms: _591  and  _594
REMARK  246  A    between atoms: _597  and  _599
REMARK  247  A    between atoms: _599  and  _600
REMARK  248  A    between atoms: _599  and  _602
REMARK  249  A    between atoms: _602  and  _603
REMARK  250  A    between atoms: _603  and  _604
REMARK  251  A    between atoms: _606  and  _608
REMARK  252  A    between atoms: _608  and  _609
REMARK  253  A    between atoms: _612  and  _614
REMARK  254  A    between atoms: _614  and  _615
REMARK  255  A    between atoms: _614  and  _617
REMARK  256  A    between atoms: _617  and  _618
REMARK  257  A    between atoms: _621  and  _623
REMARK  258  A    between atoms: _623  and  _624
REMARK  259  A    between atoms: _627  and  _629
REMARK  260  A    between atoms: _629  and  _630
REMARK  261  A    between atoms: _629  and  _632
REMARK  262  A    between atoms: _632  and  _633
REMARK  263  A    between atoms: _636  and  _638
REMARK  264  A    between atoms: _638  and  _639
REMARK  265  A    between atoms: _638  and  _641
REMARK  266  A    between atoms: _641  and  _642
REMARK  267  A    between atoms: _645  and  _647
REMARK  268  A    between atoms: _647  and  _648
REMARK  269  A    between atoms: _647  and  _650
REMARK  270  A    between atoms: _650  and  _651
REMARK  271  A    between atoms: _654  and  _656
REMARK  272  A    between atoms: _656  and  _657
REMARK  273  A    between atoms: _656  and  _659
REMARK  274  A    between atoms: _659  and  _660
REMARK  275  A    between atoms: _660  and  _661
REMARK  276  A    between atoms: _666  and  _668
REMARK  277  A    between atoms: _668  and  _669
REMARK  278  A    between atoms: _672  and  _674
REMARK  279  A    between atoms: _674  and  _675
REMARK  280  A    between atoms: _674  and  _677
REMARK  281  A    between atoms: _680  and  _682
REMARK  282  A    between atoms: _682  and  _683
REMARK  283  A    between atoms: _682  and  _685
REMARK  284  A    between atoms: _685  and  _686
REMARK  285  A    between atoms: _689  and  _691
REMARK  286  A    between atoms: _691  and  _692
REMARK  287  A    between atoms: _691  and  _694
REMARK  288  A    between atoms: _694  and  _695
REMARK  289  A    between atoms: _695  and  _696
REMARK                            x       y       z     vdW  Elec       q    Type
REMARK                         _______ _______ _______ _____ _____    ______ ____
ROOT
ATOM      1  CG  TYR A   1       2.635  64.159  52.979  0.00  0.00    -0.020 A 
ATOM      2  CD2 TYR A   1       3.529  63.209  53.463  0.00  0.00    -0.001 A 
ATOM      3  CE2 TYR A   1       4.735  63.594  54.070  0.00  0.00    +0.036 A 
ATOM      4  CZ  TYR A   1       5.030  64.938  54.165  0.00  0.00    +0.134 A 
ATOM      5  CE1 TYR A   1       4.171  65.898  53.660  0.00  0.00    +0.036 A 
ATOM      6  CD1 TYR A   1       2.987  65.506  53.069  0.00  0.00    -0.001 A 
ENDROOT
BRANCH   4   7
ATOM      7  OH  TYR A   1       6.202  65.366  54.730  0.00  0.00    -0.506 OA
ATOM      8  HH  TYR A   1       6.967  64.998  54.220  0.00  0.00    +0.292 HD
ENDBRANCH   4   7
BRANCH   1   9
ATOM      9  CB  TYR A   1       1.359  63.748  52.264  0.00  0.00    +0.051 C 
BRANCH   9  10
ATOM     10  CA  TYR A   1       1.521  63.866  50.742  0.00  0.00    +0.137 C 
BRANCH  10  11
ATOM     11  N   TYR A   1       0.355  63.354  50.029  0.00  0.00    -0.239 NA
ATOM     12  H   TYR A   1      -0.422  62.909  50.558  0.00  0.00    +0.142 HD
ENDBRANCH  10  11
BRANCH  10  13
ATOM     13  C   TYR A   1       2.802  63.161  50.266  0.00  0.00    +0.224 C 
ATOM     14  O   TYR A   1       3.828  63.806  50.005  0.00  0.00    -0.287 OA
ENDBRANCH  10  13
ENDBRANCH   9  10
ENDBRANCH   1   9
TORSDOF 5
REMARK  Name = ../refined-set-2016/3vjc/3vjc_pocket.pdb
REMARK  289 active torsions:
REMARK  status: ('A' for Active; 'I' for Inactive)
REMARK    1  A    between atoms: _1  and  _3
REMARK    2  A    between atoms: _3  and  _4
REMARK    3  A    between atoms: _3  and  _6
REMARK    4  A    between atoms: _6  and  _7
REMARK    5  A    between atoms: _10  and  _12
REMARK    6  A    between atoms: _12  and  _13
REMARK    7  A    between atoms: _12  and  _15
REMARK    8  A    between atoms: _15  and  _16
REMARK    9  A    between atoms: _21  and  _23
REMARK   10  A    between atoms: _23  and  _24
REMARK   11  A    between atoms: _23  and  _26
REMARK   12  A    between atoms: _26  and  _27
REMARK   13  A    between atoms: _27  and  _28
REMARK   14  A    between atoms: _33  and  _35
REMARK   15  A    between atoms: _35  and  _36
REMARK   16  A    between atoms: _35  and  _38
REMARK   17  A    between atoms: _38  and  _39
REMARK   18  A    between atoms: _42  and  _44
REMARK   19  A    between atoms: _44  and  _45
REMARK   20  A    between atoms: _44  and  _47
REMARK   21  A    between atoms: _47  and  _48
REMARK   22  A    between atoms: _50  and  _52
REMARK   23  A    between atoms: _52  and  _53
REMARK   24  A    between atoms: _52  and  _55
REMARK   25  A    between atoms: _55  and  _56
REMARK   26  A    between atoms: _56  and  _57
REMARK   27  A    between atoms: _57  and  _58
REMARK   28  A    between atoms: _67  and  _69
REMARK   29  A    between atoms: _69  and  _70
REMARK   30  A    between atoms: _69  and  _72
REMARK   31  A    between atoms: _72  and  _73
REMARK   32  A    between atoms: _75  and  _77
REMARK   33  A    between atoms: _77  and  _78
REMARK   34  A    between atoms: _77  and  _80
REMARK   35  A    between atoms: _80  and  _81
REMARK   36  A    between atoms: _87  and  _89
REMARK   37  A    between atoms: _89  and  _90
REMARK   38  A    between atoms: _93  and  _95
REMARK   39  A    between atoms: _95  and  _96
REMARK   40  A    between atoms: _99  and  _101
REMARK   41  A    between atoms: _101  and  _102
REMARK   42  A    between atoms: _101  and  _104
REMARK   43  A    between atoms: _107  and  _109
REMARK   44  A    between atoms: _109  and  _110
REMARK   45  A    between atoms: _109  and  _112
REMARK   46  A    between atoms: _112  and  _113
REMARK   47  A    between atoms: _116  and  _118
REMARK   48  A    between atoms: _118  and  _119
REMARK   49  A    between atoms: _118  and  _121
REMARK   50  A    between atoms: _121  and  _122
REMARK   51  A    between atoms: _125  and  _127
REMARK   52  A    between atoms: _127  and  _128
REMARK   53  A    between atoms: _131  and  _133
REMARK   54  A    between atoms: _133  and  _134
REMARK   55  A    between atoms: _133  and  _136
REMARK   56  A    between atoms: _139  and  _141
REMARK   57  A    between atoms: _141  and  _142
REMARK   58  A    between atoms: _141  and  _144
REMARK   59  A    between atoms: _146  and  _148
REMARK   60  A    between atoms: _148  and  _149
REMARK   61  A    between atoms: _148  and  _151
REMARK   62  A    between atoms: _151  and  _152
REMARK   63  A    between atoms: _155  and  _157
REMARK   64  A    between atoms: _157  and  _158
REMARK   65  A    between atoms: _157  and  _160
REMARK   66  A    between atoms: _160  and  _161
REMARK   67  A    between atoms: _167  and  _169
REMARK   68  A    between atoms: _169  and  _170
REMARK   69  A    between atoms: _169  and  _172
REMARK   70  A    between atoms: _172  and  _173
REMARK   71  A    between atoms: _178  and  _179
REMARK   72  A    between atoms: _181  and  _183
REMARK   73  A    between atoms: _183  and  _184
REMARK   74  A    between atoms: _183  and  _186
REMARK   75  A    between atoms: _186  and  _187
REMARK   76  A    between atoms: _190  and  _192
REMARK   77  A    between atoms: _192  and  _193
REMARK   78  A    between atoms: _192  and  _195
REMARK   79  A    between atoms: _198  and  _200
REMARK   80  A    between atoms: _200  and  _201
REMARK   81  A    between atoms: _200  and  _203
REMARK   82  A    between atoms: _203  and  _204
REMARK   83  A    between atoms: _207  and  _209
REMARK   84  A    between atoms: _209  and  _210
REMARK   85  A    between atoms: _209  and  _212
REMARK   86  A    between atoms: _212  and  _213
REMARK   87  A    between atoms: _213  and  _214
REMARK   88  A    between atoms: _214  and  _215
REMARK   89  A    between atoms: _224  and  _226
REMARK   90  A    between atoms: _226  and  _227
REMARK   91  A    between atoms: _230  and  _232
REMARK   92  A    between atoms: _232  and  _233
REMARK   93  A    between atoms: _232  and  _235
REMARK   94  A    between atoms: _235  and  _236
REMARK   95  A    between atoms: _239  and  _241
REMARK   96  A    between atoms: _241  and  _242
REMARK   97  A    between atoms: _241  and  _244
REMARK   98  A    between atoms: _244  and  _245
REMARK   99  A    between atoms: _248  and  _250
REMARK  100  A    between atoms: _250  and  _251
REMARK  101  A    between atoms: _250  and  _253
REMARK  102  A    between atoms: _253  and  _254
REMARK  103  A    between atoms: _257  and  _259
REMARK  104  A    between atoms: _259  and  _260
REMARK  105  A    between atoms: _259  and  _262
REMARK  106  A    between atoms: _262  and  _263
REMARK  107  A    between atoms: _263  and  _264
REMARK  108  A    between atoms: _267  and  _269
REMARK  109  A    between atoms: _269  and  _270
REMARK  110  A    between atoms: _269  and  _272
REMARK  111  A    between atoms: _272  and  _273
REMARK  112  A    between atoms: _276  and  _278
REMARK  113  A    between atoms: _278  and  _279
REMARK  114  A    between atoms: _278  and  _281
REMARK  115  A    between atoms: _281  and  _282
REMARK  116  A    between atoms: _282  and  _283
REMARK  117  A    between atoms: _283  and  _284
REMARK  118  A    between atoms: _284  and  _285
REMARK  119  A    between atoms: _289  and  _291
REMARK  120  A    between atoms: _291  and  _292
REMARK  121  A    between atoms: _291  and  _294
REMARK  122  A    between atoms: _294  and  _295
REMARK  123  A    between atoms: _298  and  _300
REMARK  124  A    between atoms: _300  and  _301
REMARK  125  A    between atoms: _300  and  _303
REMARK  126  A    between atoms: _303  and  _304
REMARK  127  A    between atoms: _307  and  _309
REMARK  128  A    between atoms: _309  and  _310
REMARK  129  A    between atoms: _309  and  _312
REMARK  130  A    between atoms: _312  and  _313
REMARK  131  A    between atoms: _313  and  _314
REMARK  132  A    between atoms: _316  and  _318
REMARK  133  A    between atoms: _318  and  _319
REMARK  134  A    between atoms: _318  and  _321
REMARK  135  A    between atoms: _321  and  _322
REMARK  136  A    between atoms: _322  and  _323
REMARK  137  A    between atoms: _325  and  _327
REMARK  138  A    between atoms: _327  and  _328
REMARK  139  A    between atoms: _327  and  _330
REMARK  140  A    between atoms: _330  and  _331
REMARK  141  A    between atoms: _336  and  _337
REMARK  142  A    between atoms: _339  and  _341
REMARK  143  A    between atoms: _341  and  _342
REMARK  144  A    between atoms: _341  and  _344
REMARK  145  A    between atoms: _344  and  _345
REMARK  146  A    between atoms: _350  and  _351
REMARK  147  A    between atoms: _353  and  _355
REMARK  148  A    between atoms: _355  and  _356
REMARK  149  A    between atoms: _355  and  _358
REMARK  150  A    between atoms: _361  and  _363
REMARK  151  A    between atoms: _363  and  _364
REMARK  152  A    between atoms: _367  and  _369
REMARK  153  A    between atoms: _369  and  _370
REMARK  154  A    between atoms: _372  and  _374
REMARK  155  A    between atoms: _374  and  _375
REMARK  156  A    between atoms: _374  and  _377
REMARK  157  A    between atoms: _377  and  _378
REMARK  158  A    between atoms: _381  and  _383
REMARK  159  A    between atoms: _383  and  _384
REMARK  160  A    between atoms: _383  and  _386
REMARK  161  A    between atoms: _389  and  _391
REMARK  162  A    between atoms: _391  and  _392
REMARK  163  A    between atoms: _394  and  _396
REMARK  164  A    between atoms: _396  and  _397
REMARK  165  A    between atoms: _399  and  _401
REMARK  166  A    between atoms: _401  and  _402
REMARK  167  A    between atoms: _401  and  _404
REMARK  168  A    between atoms: _404  and  _405
REMARK  169  A    between atoms: _408  and  _410
REMARK  170  A    between atoms: _410  and  _411
REMARK  171  A    between atoms: _410  and  _413
REMARK  172  A    between atoms: _413  and  _414
REMARK  173  A    between atoms: _417  and  _419
REMARK  174  A    between atoms: _419  and  _420
REMARK  175  A    between atoms: _419  and  _422
REMARK  176  A    between atoms: _422  and  _423
REMARK  177  A    between atoms: _429  and  _431
REMARK  178  A    between atoms: _431  and  _432
REMARK  179  A    between atoms: _431  and  _434
REMARK  180  A    between atoms: _434  and  _435
REMARK  181  A    between atoms: _435  and  _436
REMARK  182  A    between atoms: _438  and  _440
REMARK  183  A    between atoms: _440  and  _441
REMARK  184  A    between atoms: _440  and  _443
REMARK  185  A    between atoms: _443  and  _444
REMARK  186  A    between atoms: _450  and  _452
REMARK  187  A    between atoms: _452  and  _453
REMARK  188  A    between atoms: _452  and  _455
REMARK  189  A    between atoms: _455  and  _456
REMARK  190  A    between atoms: _459  and  _461
REMARK  191  A    between atoms: _461  and  _462
REMARK  192  A    between atoms: _461  and  _464
REMARK  193  A    between atoms: _464  and  _465
REMARK  194  A    between atoms: _465  and  _466
REMARK  195  A    between atoms: _471  and  _473
REMARK  196  A    between atoms: _473  and  _474
REMARK  197  A    between atoms: _473  and  _476
REMARK  198  A    between atoms: _476  and  _477
REMARK  199  A    between atoms: _477  and  _478
REMARK  200  A    between atoms: _478  and  _479
REMARK  201  A    between atoms: _479  and  _480
REMARK  202  A    between atoms: _484  and  _486
REMARK  203  A    between atoms: _486  and  _487
REMARK  204  A    between atoms: _486  and  _489
REMARK  205  A    between atoms: _489  and  _490
REMARK  206  A    between atoms: _493  and  _495
REMARK  207  A    between atoms: _495  and  _496
REMARK  208  A    between atoms: _495  and  _498
REMARK  209  A    between atoms: _498  and  _499
REMARK  210  A    between atoms: _504  and  _506
REMARK  211  A    between atoms: _506  and  _507
REMARK  212  A    between atoms: _506  and  _509
REMARK  213  A    between atoms: _509  and  _510
REMARK  214  A    between atoms: _513  and  _515
REMARK  215  A    between atoms: _515  and  _516
REMARK  216  A    between atoms: _515  and  _518
REMARK  217  A    between atoms: _518  and  _519
REMARK  218  A    between atoms: _519  and  _520
REMARK  219  A    between atoms: _520  and  _521
REMARK  220  A    between atoms: _530  and  _532
REMARK  221  A    between atoms: _532  and  _533
REMARK  222  A    between atoms: _532  and  _535
REMARK  223  A    between atoms: _535  and  _536
REMARK  224  A    between atoms: _539  and  _541
REMARK  225  A    between atoms: _541  and  _542
REMARK  226  A    between atoms: _541  and  _544
REMARK  227  A    between atoms: _544  and  _545
REMARK  228  A    between atoms: _545  and  _546
REMARK  229  A    between atoms: _549  and  _551
REMARK  230  A    between atoms: _551  and  _552
REMARK  231  A    between atoms: _551  and  _554
REMARK  232  A    between atoms: _554  and  _555
REMARK  233  A    between atoms: _561  and  _563
REMARK  234  A    between atoms: _563  and  _564
REMARK  235  A    between atoms: _563  and  _566
REMARK  236  A    between atoms: _566  and  _567
REMARK  237  A    between atoms: _571  and  _572
REMARK  238  A    between atoms: _577  and  _579
REMARK  239  A    between atoms: _579  and  _580
REMARK  240  A    between atoms: _579  and  _582
REMARK  241  A    between atoms: _582  and  _583
REMARK  242  A    between atoms: _583  and  _584
REMARK  243  A    between atoms: _589  and  _591
REMARK  244  A    between atoms: _591  and  _592
REMARK  245  A    between atoms: _591  and  _594
REMARK  246  A    between atoms: _597  and  _599
REMARK  247  A    between atoms: _599  and  _600
REMARK  248  A    between atoms: _599  and  _602
REMARK  249  A    between atoms: _602  and  _603
REMARK  250  A    between atoms: _603  and  _604
REMARK  251  A    between atoms: _606  and  _608
REMARK  252  A    between atoms: _608  and  _609
REMARK  253  A    between atoms: _612  and  _614
REMARK  254  A    between atoms: _614  and  _615
REMARK  255  A    between atoms: _614  and  _617
REMARK  256  A    between atoms: _617  and  _618
REMARK  257  A    between atoms: _621  and  _623
REMARK  258  A    between atoms: _623  and  _624
REMARK  259  A    between atoms: _627  and  _629
REMARK  260  A    between atoms: _629  and  _630
REMARK  261  A    between atoms: _629  and  _632
REMARK  262  A    between atoms: _632  and  _633
REMARK  263  A    between atoms: _636  and  _638
REMARK  264  A    between atoms: _638  and  _639
REMARK  265  A    between atoms: _638  and  _641
REMARK  266  A    between atoms: _641  and  _642
REMARK  267  A    between atoms: _645  and  _647
REMARK  268  A    between atoms: _647  and  _648
REMARK  269  A    between atoms: _647  and  _650
REMARK  270  A    between atoms: _650  and  _651
REMARK  271  A    between atoms: _654  and  _656
REMARK  272  A    between atoms: _656  and  _657
REMARK  273  A    between atoms: _656  and  _659
REMARK  274  A    between atoms: _659  and  _660
REMARK  275  A    between atoms: _660  and  _661
REMARK  276  A    between atoms: _666  and  _668
REMARK  277  A    between atoms: _668  and  _669
REMARK  278  A    between atoms: _672  and  _674
REMARK  279  A    between atoms: _674  and  _675
REMARK  280  A    between atoms: _674  and  _677
REMARK  281  A    between atoms: _680  and  _682
REMARK  282  A    between atoms: _682  and  _683
REMARK  283  A    between atoms: _682  and  _685
REMARK  284  A    between atoms: _685  and  _686
REMARK  285  A    between atoms: _689  and  _691
REMARK  286  A    between atoms: _691  and  _692
REMARK  287  A    between atoms: _691  and  _694
REMARK  288  A    between atoms: _694  and  _695
REMARK  289  A    between atoms: _695  and  _696
REMARK                            x       y       z     vdW  Elec       q    Type
REMARK                         _______ _______ _______ _____ _____    ______ ____
ROOT
ATOM      1  C   ALA A   3       8.479  60.998  46.036  0.00  0.00    +0.241 C 
ATOM      2  N   GLY A   4       7.185  60.888  45.731  0.00  0.00    -0.295 N 
ATOM      3  H   GLY A   4       6.462  61.079  46.454  0.00  0.00    +0.150 HD
ATOM      4  O   ALA A   3       9.366  60.691  45.252  0.00  0.00    -0.273 OA
ENDROOT
BRANCH   1   5
ATOM      5  CA  ALA A   3       8.858  61.483  47.428  0.00  0.00    +0.149 C 
ATOM      6  CB  ALA A   3       8.671  60.347  48.441  0.00  0.00    +0.031 C 
BRANCH   5   9
ATOM      7  C   VAL A   2       8.597  63.577  48.620  0.00  0.00    +0.241 C 
ATOM      8  O   VAL A   2       9.762  63.512  48.995  0.00  0.00    -0.273 OA
ATOM      9  N   ALA A   3       8.076  62.661  47.811  0.00  0.00    -0.297 N 
ATOM     10  H   ALA A   3       7.109  62.781  47.448  0.00  0.00    +0.150 HD
BRANCH   7  11
ATOM     11  CA  VAL A   2       7.719  64.740  49.086  0.00  0.00    +0.148 C 
BRANCH  11  13
ATOM     12  C   TYR A   1       6.114  65.596  47.471  0.00  0.00    +0.239 C 
ATOM     13  N   VAL A   2       6.395  64.744  48.455  0.00  0.00    -0.297 N 
ATOM     14  H   VAL A   2       5.668  64.075  48.779  0.00  0.00    +0.150 HD
ATOM     15  O   TYR A   1       6.967  66.332  46.962  0.00  0.00    -0.274 OA
BRANCH  12  16
ATOM     16  CA  TYR A   1       4.668  65.690  46.988  0.00  0.00    +0.149 C 
BRANCH  16  17
ATOM     17  N   TYR A   1       3.964  64.413  46.908  0.00  0.00    -0.238 NA
ATOM     18  H   TYR A   1       3.125  64.254  47.502  0.00  0.00    +0.142 HD
ENDBRANCH  16  17
BRANCH  16  19
ATOM     19  CB  TYR A   1       3.910  66.614  47.939  0.00  0.00    +0.053 C 
BRANCH  19  20
ATOM     20  CG  TYR A   1       2.550  67.062  47.457  0.00  0.00    -0.020 A 
ATOM     21  CD2 TYR A   1       1.562  67.372  48.382  0.00  0.00    -0.001 A 
ATOM     22  CE2 TYR A   1       0.318  67.864  47.982  0.00  0.00    +0.036 A 
ATOM     23  CZ  TYR A   1       0.065  68.049  46.637  0.00  0.00    +0.134 A 
ATOM     24  CE1 TYR A   1       1.033  67.750  45.684  0.00  0.00    +0.036 A 
ATOM     25  CD1 TYR A   1       2.271  67.261  46.101  0.00  0.00    -0.001 A 
BRANCH  23  26
ATOM     26  OH  TYR A   1      -1.169  68.549  46.293  0.00  0.00    -0.506 OA
ATOM     27  HH  TYR A   1      -1.292  69.438  46.711  0.00  0.00    +0.292 HD
ENDBRANCH  23  26
ENDBRANCH  19  20
ENDBRANCH  16  19
ENDBRANCH  12  16
ENDBRANCH  11  13
BRANCH  11  28
ATOM     28  CB  VAL A   2       7.661  64.807  50.652  0.00  0.00    +0.027 C 
ATOM     29  CG2 VAL A   2       7.122  63.492  51.263  0.00  0.00    +0.002 C 
ATOM     30  CG1 VAL A   2       6.806  66.007  51.123  0.00  0.00    +0.002 C 
ENDBRANCH  11  28
ENDBRANCH   7  11
ENDBRANCH   5   9
ENDBRANCH   1   5
BRANCH   2  31
ATOM     31  CA  GLY A   4       6.782  60.498  44.376  0.00  0.00    +0.176 C 
BRANCH  31  32
ATOM     32  C   GLY A   4       7.387  61.408  43.319  0.00  0.00    +0.243 C 
ATOM     33  N   LEU A   5       7.327  62.717  43.558  0.00  0.00    -0.297 N 
ATOM     34  H   LEU A   5       6.850  63.052  44.419  0.00  0.00    +0.150 HD
ATOM     35  O   GLY A   4       7.889  60.935  42.290  0.00  0.00    -0.273 OA
BRANCH  33  36
ATOM     36  CA  LEU A   5       7.913  63.696  42.644  0.00  0.00    +0.149 C 
BRANCH  36  37
ATOM     37  C   LEU A   5       9.431  63.556  42.515  0.00  0.00    +0.241 C 
ATOM     38  N   VAL A   6      10.089  63.085  43.576  0.00  0.00    -0.297 N 
ATOM     39  H   VAL A   6       9.585  62.937  44.473  0.00  0.00    +0.150 HD
ATOM     40  O   LEU A   5       9.990  63.908  41.468  0.00  0.00    -0.273 OA
BRANCH  38  41
ATOM     41  CA  VAL A   6      11.515  62.776  43.484  0.00  0.00    +0.149 C 
BRANCH  41  42
ATOM     42  C   VAL A   6      11.752  61.657  42.478  0.00  0.00    +0.241 C 
ATOM     43  N   GLY A   7      10.940  60.603  42.558  0.00  0.00    -0.296 N 
ATOM     44  H   GLY A   7      10.191  60.585  43.279  0.00  0.00    +0.150 HD
ATOM     45  O   VAL A   6      12.637  61.777  41.622  0.00  0.00    -0.273 OA
BRANCH  43  46
ATOM     46  CA  GLY A   7      11.089  59.471  41.644  0.00  0.00    +0.163 C 
BRANCH  46  47
ATOM     47  C   GLY A   7      10.807  59.905  40.218  0.00  0.00    +0.229 C 
ATOM     48  O   GLY A   7      11.505  59.526  39.259  0.00  0.00    -0.286 OA
ENDBRANCH  46  47
ENDBRANCH  43  46
ENDBRANCH  41  42
BRANCH  41  49
ATOM     49  CB  VAL A   6      12.127  62.443  44.859  0.00  0.00    +0.027 C 
ATOM     50  CG2 VAL A   6      11.811  63.588  45.822  0.00  0.00    +0.002 C 
ATOM     51  CG1 VAL A   6      13.648  62.194  44.754  0.00  0.00    +0.002 C 
ENDBRANCH  41  49
ENDBRANCH  38  41
ENDBRANCH  36  37
BRANCH  36  52
ATOM     52  CB  LEU A   5       7.558  65.136  43.040  0.00  0.00    +0.029 C 
BRANCH  52  53
ATOM     53  CG  LEU A   5       6.106  65.584  42.843  0.00  0.00    +0.002 C 
ATOM     54  CD2 LEU A   5       5.888  66.985  43.475  0.00  0.00    +0.000 C 
ATOM     55  CD1 LEU A   5       5.767  65.631  41.349  0.00  0.00    +0.000 C 
ENDBRANCH  52  53
ENDBRANCH  36  52
ENDBRANCH  33  36
ENDBRANCH  31  32
ENDBRANCH   2  31
TORSDOF 21
REMARK  Name = ../refined-set-2016/3vjc/3vjc_pocket.pdb
REMARK  289 active torsions:
REMARK  status: ('A' for Active; 'I' for Inactive)
REMARK    1  A    between atoms: _1  and  _3
REMARK    2  A    between atoms: _3  and  _4
REMARK    3  A    between atoms: _3  and  _6
REMARK    4  A    between atoms: _6  and  _7
REMARK    5  A    between atoms: _10  and  _12
REMARK    6  A    between atoms: _12  and  _13
REMARK    7  A    between atoms: _12  and  _15
REMARK    8  A    between atoms: _15  and  _16
REMARK    9  A    between atoms: _21  and  _23
REMARK   10  A    between atoms: _23  and  _24
REMARK   11  A    between atoms: _23  and  _26
REMARK   12  A    between atoms: _26  and  _27
REMARK   13  A    between atoms: _27  and  _28
REMARK   14  A    between atoms: _33  and  _35
REMARK   15  A    between atoms: _35  and  _36
REMARK   16  A    between atoms: _35  and  _38
REMARK   17  A    between atoms: _38  and  _39
REMARK   18  A    between atoms: _42  and  _44
REMARK   19  A    between atoms: _44  and  _45
REMARK   20  A    between atoms: _44  and  _47
REMARK   21  A    between atoms: _47  and  _48
REMARK   22  A    between atoms: _50  and  _52
REMARK   23  A    between atoms: _52  and  _53
REMARK   24  A    between atoms: _52  and  _55
REMARK   25  A    between atoms: _55  and  _56
REMARK   26  A    between atoms: _56  and  _57
REMARK   27  A    between atoms: _57  and  _58
REMARK   28  A    between atoms: _67  and  _69
REMARK   29  A    between atoms: _69  and  _70
REMARK   30  A    between atoms: _69  and  _72
REMARK   31  A    between atoms: _72  and  _73
REMARK   32  A    between atoms: _75  and  _77
REMARK   33  A    between atoms: _77  and  _78
REMARK   34  A    between atoms: _77  and  _80
REMARK   35  A    between atoms: _80  and  _81
REMARK   36  A    between atoms: _87  and  _89
REMARK   37  A    between atoms: _89  and  _90
REMARK   38  A    between atoms: _93  and  _95
REMARK   39  A    between atoms: _95  and  _96
REMARK   40  A    between atoms: _99  and  _101
REMARK   41  A    between atoms: _101  and  _102
REMARK   42  A    between atoms: _101  and  _104
REMARK   43  A    between atoms: _107  and  _109
REMARK   44  A    between atoms: _109  and  _110
REMARK   45  A    between atoms: _109  and  _112
REMARK   46  A    between atoms: _112  and  _113
REMARK   47  A    between atoms: _116  and  _118
REMARK   48  A    between atoms: _118  and  _119
REMARK   49  A    between atoms: _118  and  _121
REMARK   50  A    between atoms: _121  and  _122
REMARK   51  A    between atoms: _125  and  _127
REMARK   52  A    between atoms: _127  and  _128
REMARK   53  A    between atoms: _131  and  _133
REMARK   54  A    between atoms: _133  and  _134
REMARK   55  A    between atoms: _133  and  _136
REMARK   56  A    between atoms: _139  and  _141
REMARK   57  A    between atoms: _141  and  _142
REMARK   58  A    between atoms: _141  and  _144
REMARK   59  A    between atoms: _146  and  _148
REMARK   60  A    between atoms: _148  and  _149
REMARK   61  A    between atoms: _148  and  _151
REMARK   62  A    between atoms: _151  and  _152
REMARK   63  A    between atoms: _155  and  _157
REMARK   64  A    between atoms: _157  and  _158
REMARK   65  A    between atoms: _157  and  _160
REMARK   66  A    between atoms: _160  and  _161
REMARK   67  A    between atoms: _167  and  _169
REMARK   68  A    between atoms: _169  and  _170
REMARK   69  A    between atoms: _169  and  _172
REMARK   70  A    between atoms: _172  and  _173
REMARK   71  A    between atoms: _178  and  _179
REMARK   72  A    between atoms: _181  and  _183
REMARK   73  A    between atoms: _183  and  _184
REMARK   74  A    between atoms: _183  and  _186
REMARK   75  A    between atoms: _186  and  _187
REMARK   76  A    between atoms: _190  and  _192
REMARK   77  A    between atoms: _192  and  _193
REMARK   78  A    between atoms: _192  and  _195
REMARK   79  A    between atoms: _198  and  _200
REMARK   80  A    between atoms: _200  and  _201
REMARK   81  A    between atoms: _200  and  _203
REMARK   82  A    between atoms: _203  and  _204
REMARK   83  A    between atoms: _207  and  _209
REMARK   84  A    between atoms: _209  and  _210
REMARK   85  A    between atoms: _209  and  _212
REMARK   86  A    between atoms: _212  and  _213
REMARK   87  A    between atoms: _213  and  _214
REMARK   88  A    between atoms: _214  and  _215
REMARK   89  A    between atoms: _224  and  _226
REMARK   90  A    between atoms: _226  and  _227
REMARK   91  A    between atoms: _230  and  _232
REMARK   92  A    between atoms: _232  and  _233
REMARK   93  A    between atoms: _232  and  _235
REMARK   94  A    between atoms: _235  and  _236
REMARK   95  A    between atoms: _239  and  _241
REMARK   96  A    between atoms: _241  and  _242
REMARK   97  A    between atoms: _241  and  _244
REMARK   98  A    between atoms: _244  and  _245
REMARK   99  A    between atoms: _248  and  _250
REMARK  100  A    between atoms: _250  and  _251
REMARK  101  A    between atoms: _250  and  _253
REMARK  102  A    between atoms: _253  and  _254
REMARK  103  A    between atoms: _257  and  _259
REMARK  104  A    between atoms: _259  and  _260
REMARK  105  A    between atoms: _259  and  _262
REMARK  106  A    between atoms: _262  and  _263
REMARK  107  A    between atoms: _263  and  _264
REMARK  108  A    between atoms: _267  and  _269
REMARK  109  A    between atoms: _269  and  _270
REMARK  110  A    between atoms: _269  and  _272
REMARK  111  A    between atoms: _272  and  _273
REMARK  112  A    between atoms: _276  and  _278
REMARK  113  A    between atoms: _278  and  _279
REMARK  114  A    between atoms: _278  and  _281
REMARK  115  A    between atoms: _281  and  _282
REMARK  116  A    between atoms: _282  and  _283
REMARK  117  A    between atoms: _283  and  _284
REMARK  118  A    between atoms: _284  and  _285
REMARK  119  A    between atoms: _289  and  _291
REMARK  120  A    between atoms: _291  and  _292
REMARK  121  A    between atoms: _291  and  _294
REMARK  122  A    between atoms: _294  and  _295
REMARK  123  A    between atoms: _298  and  _300
REMARK  124  A    between atoms: _300  and  _301
REMARK  125  A    between atoms: _300  and  _303
REMARK  126  A    between atoms: _303  and  _304
REMARK  127  A    between atoms: _307  and  _309
REMARK  128  A    between atoms: _309  and  _310
REMARK  129  A    between atoms: _309  and  _312
REMARK  130  A    between atoms: _312  and  _313
REMARK  131  A    between atoms: _313  and  _314
REMARK  132  A    between atoms: _316  and  _318
REMARK  133  A    between atoms: _318  and  _319
REMARK  134  A    between atoms: _318  and  _321
REMARK  135  A    between atoms: _321  and  _322
REMARK  136  A    between atoms: _322  and  _323
REMARK  137  A    between atoms: _325  and  _327
REMARK  138  A    between atoms: _327  and  _328
REMARK  139  A    between atoms: _327  and  _330
REMARK  140  A    between atoms: _330  and  _331
REMARK  141  A    between atoms: _336  and  _337
REMARK  142  A    between atoms: _339  and  _341
REMARK  143  A    between atoms: _341  and  _342
REMARK  144  A    between atoms: _341  and  _344
REMARK  145  A    between atoms: _344  and  _345
REMARK  146  A    between atoms: _350  and  _351
REMARK  147  A    between atoms: _353  and  _355
REMARK  148  A    between atoms: _355  and  _356
REMARK  149  A    between atoms: _355  and  _358
REMARK  150  A    between atoms: _361  and  _363
REMARK  151  A    between atoms: _363  and  _364
REMARK  152  A    between atoms: _367  and  _369
REMARK  153  A    between atoms: _369  and  _370
REMARK  154  A    between atoms: _372  and  _374
REMARK  155  A    between atoms: _374  and  _375
REMARK  156  A    between atoms: _374  and  _377
REMARK  157  A    between atoms: _377  and  _378
REMARK  158  A    between atoms: _381  and  _383
REMARK  159  A    between atoms: _383  and  _384
REMARK  160  A    between atoms: _383  and  _386
REMARK  161  A    between atoms: _389  and  _391
REMARK  162  A    between atoms: _391  and  _392
REMARK  163  A    between atoms: _394  and  _396
REMARK  164  A    between atoms: _396  and  _397
REMARK  165  A    between atoms: _399  and  _401
REMARK  166  A    between atoms: _401  and  _402
REMARK  167  A    between atoms: _401  and  _404
REMARK  168  A    between atoms: _404  and  _405
REMARK  169  A    between atoms: _408  and  _410
REMARK  170  A    between atoms: _410  and  _411
REMARK  171  A    between atoms: _410  and  _413
REMARK  172  A    between atoms: _413  and  _414
REMARK  173  A    between atoms: _417  and  _419
REMARK  174  A    between atoms: _419  and  _420
REMARK  175  A    between atoms: _419  and  _422
REMARK  176  A    between atoms: _422  and  _423
REMARK  177  A    between atoms: _429  and  _431
REMARK  178  A    between atoms: _431  and  _432
REMARK  179  A    between atoms: _431  and  _434
REMARK  180  A    between atoms: _434  and  _435
REMARK  181  A    between atoms: _435  and  _436
REMARK  182  A    between atoms: _438  and  _440
REMARK  183  A    between atoms: _440  and  _441
REMARK  184  A    between atoms: _440  and  _443
REMARK  185  A    between atoms: _443  and  _444
REMARK  186  A    between atoms: _450  and  _452
REMARK  187  A    between atoms: _452  and  _453
REMARK  188  A    between atoms: _452  and  _455
REMARK  189  A    between atoms: _455  and  _456
REMARK  190  A    between atoms: _459  and  _461
REMARK  191  A    between atoms: _461  and  _462
REMARK  192  A    between atoms: _461  and  _464
REMARK  193  A    between atoms: _464  and  _465
REMARK  194  A    between atoms: _465  and  _466
REMARK  195  A    between atoms: _471  and  _473
REMARK  196  A    between atoms: _473  and  _474
REMARK  197  A    between atoms: _473  and  _476
REMARK  198  A    between atoms: _476  and  _477
REMARK  199  A    between atoms: _477  and  _478
REMARK  200  A    between atoms: _478  and  _479
REMARK  201  A    between atoms: _479  and  _480
REMARK  202  A    between atoms: _484  and  _486
REMARK  203  A    between atoms: _486  and  _487
REMARK  204  A    between atoms: _486  and  _489
REMARK  205  A    between atoms: _489  and  _490
REMARK  206  A    between atoms: _493  and  _495
REMARK  207  A    between atoms: _495  and  _496
REMARK  208  A    between atoms: _495  and  _498
REMARK  209  A    between atoms: _498  and  _499
REMARK  210  A    between atoms: _504  and  _506
REMARK  211  A    between atoms: _506  and  _507
REMARK  212  A    between atoms: _506  and  _509
REMARK  213  A    between atoms: _509  and  _510
REMARK  214  A    between atoms: _513  and  _515
REMARK  215  A    between atoms: _515  and  _516
REMARK  216  A    between atoms: _515  and  _518
REMARK  217  A    between atoms: _518  and  _519
REMARK  218  A    between atoms: _519  and  _520
REMARK  219  A    between atoms: _520  and  _521
REMARK  220  A    between atoms: _530  and  _532
REMARK  221  A    between atoms: _532  and  _533
REMARK  222  A    between atoms: _532  and  _535
REMARK  223  A    between atoms: _535  and  _536
REMARK  224  A    between atoms: _539  and  _541
REMARK  225  A    between atoms: _541  and  _542
REMARK  226  A    between atoms: _541  and  _544
REMARK  227  A    between atoms: _544  and  _545
REMARK  228  A    between atoms: _545  and  _546
REMARK  229  A    between atoms: _549  and  _551
REMARK  230  A    between atoms: _551  and  _552
REMARK  231  A    between atoms: _551  and  _554
REMARK  232  A    between atoms: _554  and  _555
REMARK  233  A    between atoms: _561  and  _563
REMARK  234  A    between atoms: _563  and  _564
REMARK  235  A    between atoms: _563  and  _566
REMARK  236  A    between atoms: _566  and  _567
REMARK  237  A    between atoms: _571  and  _572
REMARK  238  A    between atoms: _577  and  _579
REMARK  239  A    between atoms: _579  and  _580
REMARK  240  A    between atoms: _579  and  _582
REMARK  241  A    between atoms: _582  and  _583
REMARK  242  A    between atoms: _583  and  _584
REMARK  243  A    between atoms: _589  and  _591
REMARK  244  A    between atoms: _591  and  _592
REMARK  245  A    between atoms: _591  and  _594
REMARK  246  A    between atoms: _597  and  _599
REMARK  247  A    between atoms: _599  and  _600
REMARK  248  A    between atoms: _599  and  _602
REMARK  249  A    between atoms: _602  and  _603
REMARK  250  A    between atoms: _603  and  _604
REMARK  251  A    between atoms: _606  and  _608
REMARK  252  A    between atoms: _608  and  _609
REMARK  253  A    between atoms: _612  and  _614
REMARK  254  A    between atoms: _614  and  _615
REMARK  255  A    between atoms: _614  and  _617
REMARK  256  A    between atoms: _617  and  _618
REMARK  257  A    between atoms: _621  and  _623
REMARK  258  A    between atoms: _623  and  _624
REMARK  259  A    between atoms: _627  and  _629
REMARK  260  A    between atoms: _629  and  _630
REMARK  261  A    between atoms: _629  and  _632
REMARK  262  A    between atoms: _632  and  _633
REMARK  263  A    between atoms: _636  and  _638
REMARK  264  A    between atoms: _638  and  _639
REMARK  265  A    between atoms: _638  and  _641
REMARK  266  A    between atoms: _641  and  _642
REMARK  267  A    between atoms: _645  and  _647
REMARK  268  A    between atoms: _647  and  _648
REMARK  269  A    between atoms: _647  and  _650
REMARK  270  A    between atoms: _650  and  _651
REMARK  271  A    between atoms: _654  and  _656
REMARK  272  A    between atoms: _656  and  _657
REMARK  273  A    between atoms: _656  and  _659
REMARK  274  A    between atoms: _659  and  _660
REMARK  275  A    between atoms: _660  and  _661
REMARK  276  A    between atoms: _666  and  _668
REMARK  277  A    between atoms: _668  and  _669
REMARK  278  A    between atoms: _672  and  _674
REMARK  279  A    between atoms: _674  and  _675
REMARK  280  A    between atoms: _674  and  _677
REMARK  281  A    between atoms: _680  and  _682
REMARK  282  A    between atoms: _682  and  _683
REMARK  283  A    between atoms: _682  and  _685
REMARK  284  A    between atoms: _685  and  _686
REMARK  285  A    between atoms: _689  and  _691
REMARK  286  A    between atoms: _691  and  _692
REMARK  287  A    between atoms: _691  and  _694
REMARK  288  A    between atoms: _694  and  _695
REMARK  289  A    between atoms: _695  and  _696
REMARK                            x       y       z     vdW  Elec       q    Type
REMARK                         _______ _______ _______ _____ _____    ______ ____
ROOT
ATOM      1  C   GLY A   1      13.444  63.056  38.186  0.00  0.00    +0.240 C 
ATOM      2  N   LEU A   2      13.809  62.066  38.992  0.00  0.00    -0.298 N 
ATOM      3  H   LEU A   2      13.254  61.887  39.853  0.00  0.00    +0.150 HD
ATOM      4  O   GLY A   1      14.053  63.310  37.145  0.00  0.00    -0.274 OA
ENDROOT
BRANCH   1   5
ATOM      5  CA  GLY A   1      12.220  63.872  38.581  0.00  0.00    +0.169 C 
BRANCH   5   6
ATOM      6  N   GLY A   1      11.098  63.018  39.011  0.00  0.00    -0.236 NA
ATOM      7  H   GLY A   1      10.721  63.117  39.975  0.00  0.00    +0.142 HD
ENDBRANCH   5   6
ENDBRANCH   1   5
BRANCH   2   8
ATOM      8  CA  LEU A   2      14.971  61.216  38.707  0.00  0.00    +0.137 C 
BRANCH   8   9
ATOM      9  C   LEU A   2      14.798  60.480  37.381  0.00  0.00    +0.227 C 
ATOM     10  O   LEU A   2      15.699  60.447  36.540  0.00  0.00    -0.286 OA
ENDBRANCH   8   9
BRANCH   8  11
ATOM     11  CB  LEU A   2      15.222  60.213  39.848  0.00  0.00    +0.028 C 
BRANCH  11  12
ATOM     12  CG  LEU A   2      15.751  60.890  41.113  0.00  0.00    +0.002 C 
ATOM     13  CD2 LEU A   2      15.605  59.969  42.325  0.00  0.00    +0.000 C 
ATOM     14  CD1 LEU A   2      17.233  61.322  40.889  0.00  0.00    +0.000 C 
ENDBRANCH  11  12
ENDBRANCH   8  11
ENDBRANCH   2   8
TORSDOF 6
REMARK  Name = ../refined-set-2016/3vjc/3vjc_pocket.pdb
REMARK  289 active torsions:
REMARK  status: ('A' for Active; 'I' for Inactive)
REMARK    1  A    between atoms: _1  and  _3
REMARK    2  A    between atoms: _3  and  _4
REMARK    3  A    between atoms: _3  and  _6
REMARK    4  A    between atoms: _6  and  _7
REMARK    5  A    between atoms: _10  and  _12
REMARK    6  A    between atoms: _12  and  _13
REMARK    7  A    between atoms: _12  and  _15
REMARK    8  A    between atoms: _15  and  _16
REMARK    9  A    between atoms: _21  and  _23
REMARK   10  A    between atoms: _23  and  _24
REMARK   11  A    between atoms: _23  and  _26
REMARK   12  A    between atoms: _26  and  _27
REMARK   13  A    between atoms: _27  and  _28
REMARK   14  A    between atoms: _33  and  _35
REMARK   15  A    between atoms: _35  and  _36
REMARK   16  A    between atoms: _35  and  _38
REMARK   17  A    between atoms: _38  and  _39
REMARK   18  A    between atoms: _42  and  _44
REMARK   19  A    between atoms: _44  and  _45
REMARK   20  A    between atoms: _44  and  _47
REMARK   21  A    between atoms: _47  and  _48
REMARK   22  A    between atoms: _50  and  _52
REMARK   23  A    between atoms: _52  and  _53
REMARK   24  A    between atoms: _52  and  _55
REMARK   25  A    between atoms: _55  and  _56
REMARK   26  A    between atoms: _56  and  _57
REMARK   27  A    between atoms: _57  and  _58
REMARK   28  A    between atoms: _67  and  _69
REMARK   29  A    between atoms: _69  and  _70
REMARK   30  A    between atoms: _69  and  _72
REMARK   31  A    between atoms: _72  and  _73
REMARK   32  A    between atoms: _75  and  _77
REMARK   33  A    between atoms: _77  and  _78
REMARK   34  A    between atoms: _77  and  _80
REMARK   35  A    between atoms: _80  and  _81
REMARK   36  A    between atoms: _87  and  _89
REMARK   37  A    between atoms: _89  and  _90
REMARK   38  A    between atoms: _93  and  _95
REMARK   39  A    between atoms: _95  and  _96
REMARK   40  A    between atoms: _99  and  _101
REMARK   41  A    between atoms: _101  and  _102
REMARK   42  A    between atoms: _101  and  _104
REMARK   43  A    between atoms: _107  and  _109
REMARK   44  A    between atoms: _109  and  _110
REMARK   45  A    between atoms: _109  and  _112
REMARK   46  A    between atoms: _112  and  _113
REMARK   47  A    between atoms: _116  and  _118
REMARK   48  A    between atoms: _118  and  _119
REMARK   49  A    between atoms: _118  and  _121
REMARK   50  A    between atoms: _121  and  _122
REMARK   51  A    between atoms: _125  and  _127
REMARK   52  A    between atoms: _127  and  _128
REMARK   53  A    between atoms: _131  and  _133
REMARK   54  A    between atoms: _133  and  _134
REMARK   55  A    between atoms: _133  and  _136
REMARK   56  A    between atoms: _139  and  _141
REMARK   57  A    between atoms: _141  and  _142
REMARK   58  A    between atoms: _141  and  _144
REMARK   59  A    between atoms: _146  and  _148
REMARK   60  A    between atoms: _148  and  _149
REMARK   61  A    between atoms: _148  and  _151
REMARK   62  A    between atoms: _151  and  _152
REMARK   63  A    between atoms: _155  and  _157
REMARK   64  A    between atoms: _157  and  _158
REMARK   65  A    between atoms: _157  and  _160
REMARK   66  A    between atoms: _160  and  _161
REMARK   67  A    between atoms: _167  and  _169
REMARK   68  A    between atoms: _169  and  _170
REMARK   69  A    between atoms: _169  and  _172
REMARK   70  A    between atoms: _172  and  _173
REMARK   71  A    between atoms: _178  and  _179
REMARK   72  A    between atoms: _181  and  _183
REMARK   73  A    between atoms: _183  and  _184
REMARK   74  A    between atoms: _183  and  _186
REMARK   75  A    between atoms: _186  and  _187
REMARK   76  A    between atoms: _190  and  _192
REMARK   77  A    between atoms: _192  and  _193
REMARK   78  A    between atoms: _192  and  _195
REMARK   79  A    between atoms: _198  and  _200
REMARK   80  A    between atoms: _200  and  _201
REMARK   81  A    between atoms: _200  and  _203
REMARK   82  A    between atoms: _203  and  _204
REMARK   83  A    between atoms: _207  and  _209
REMARK   84  A    between atoms: _209  and  _210
REMARK   85  A    between atoms: _209  and  _212
REMARK   86  A    between atoms: _212  and  _213
REMARK   87  A    between atoms: _213  and  _214
REMARK   88  A    between atoms: _214  and  _215
REMARK   89  A    between atoms: _224  and  _226
REMARK   90  A    between atoms: _226  and  _227
REMARK   91  A    between atoms: _230  and  _232
REMARK   92  A    between atoms: _232  and  _233
REMARK   93  A    between atoms: _232  and  _235
REMARK   94  A    between atoms: _235  and  _236
REMARK   95  A    between atoms: _239  and  _241
REMARK   96  A    between atoms: _241  and  _242
REMARK   97  A    between atoms: _241  and  _244
REMARK   98  A    between atoms: _244  and  _245
REMARK   99  A    between atoms: _248  and  _250
REMARK  100  A    between atoms: _250  and  _251
REMARK  101  A    between atoms: _250  and  _253
REMARK  102  A    between atoms: _253  and  _254
REMARK  103  A    between atoms: _257  and  _259
REMARK  104  A    between atoms: _259  and  _260
REMARK  105  A    between atoms: _259  and  _262
REMARK  106  A    between atoms: _262  and  _263
REMARK  107  A    between atoms: _263  and  _264
REMARK  108  A    between atoms: _267  and  _269
REMARK  109  A    between atoms: _269  and  _270
REMARK  110  A    between atoms: _269  and  _272
REMARK  111  A    between atoms: _272  and  _273
REMARK  112  A    between atoms: _276  and  _278
REMARK  113  A    between atoms: _278  and  _279
REMARK  114  A    between atoms: _278  and  _281
REMARK  115  A    between atoms: _281  and  _282
REMARK  116  A    between atoms: _282  and  _283
REMARK  117  A    between atoms: _283  and  _284
REMARK  118  A    between atoms: _284  and  _285
REMARK  119  A    between atoms: _289  and  _291
REMARK  120  A    between atoms: _291  and  _292
REMARK  121  A    between atoms: _291  and  _294
REMARK  122  A    between atoms: _294  and  _295
REMARK  123  A    between atoms: _298  and  _300
REMARK  124  A    between atoms: _300  and  _301
REMARK  125  A    between atoms: _300  and  _303
REMARK  126  A    between atoms: _303  and  _304
REMARK  127  A    between atoms: _307  and  _309
REMARK  128  A    between atoms: _309  and  _310
REMARK  129  A    between atoms: _309  and  _312
REMARK  130  A    between atoms: _312  and  _313
REMARK  131  A    between atoms: _313  and  _314
REMARK  132  A    between atoms: _316  and  _318
REMARK  133  A    between atoms: _318  and  _319
REMARK  134  A    between atoms: _318  and  _321
REMARK  135  A    between atoms: _321  and  _322
REMARK  136  A    between atoms: _322  and  _323
REMARK  137  A    between atoms: _325  and  _327
REMARK  138  A    between atoms: _327  and  _328
REMARK  139  A    between atoms: _327  and  _330
REMARK  140  A    between atoms: _330  and  _331
REMARK  141  A    between atoms: _336  and  _337
REMARK  142  A    between atoms: _339  and  _341
REMARK  143  A    between atoms: _341  and  _342
REMARK  144  A    between atoms: _341  and  _344
REMARK  145  A    between atoms: _344  and  _345
REMARK  146  A    between atoms: _350  and  _351
REMARK  147  A    between atoms: _353  and  _355
REMARK  148  A    between atoms: _355  and  _356
REMARK  149  A    between atoms: _355  and  _358
REMARK  150  A    between atoms: _361  and  _363
REMARK  151  A    between atoms: _363  and  _364
REMARK  152  A    between atoms: _367  and  _369
REMARK  153  A    between atoms: _369  and  _370
REMARK  154  A    between atoms: _372  and  _374
REMARK  155  A    between atoms: _374  and  _375
REMARK  156  A    between atoms: _374  and  _377
REMARK  157  A    between atoms: _377  and  _378
REMARK  158  A    between atoms: _381  and  _383
REMARK  159  A    between atoms: _383  and  _384
REMARK  160  A    between atoms: _383  and  _386
REMARK  161  A    between atoms: _389  and  _391
REMARK  162  A    between atoms: _391  and  _392
REMARK  163  A    between atoms: _394  and  _396
REMARK  164  A    between atoms: _396  and  _397
REMARK  165  A    between atoms: _399  and  _401
REMARK  166  A    between atoms: _401  and  _402
REMARK  167  A    between atoms: _401  and  _404
REMARK  168  A    between atoms: _404  and  _405
REMARK  169  A    between atoms: _408  and  _410
REMARK  170  A    between atoms: _410  and  _411
REMARK  171  A    between atoms: _410  and  _413
REMARK  172  A    between atoms: _413  and  _414
REMARK  173  A    between atoms: _417  and  _419
REMARK  174  A    between atoms: _419  and  _420
REMARK  175  A    between atoms: _419  and  _422
REMARK  176  A    between atoms: _422  and  _423
REMARK  177  A    between atoms: _429  and  _431
REMARK  178  A    between atoms: _431  and  _432
REMARK  179  A    between atoms: _431  and  _434
REMARK  180  A    between atoms: _434  and  _435
REMARK  181  A    between atoms: _435  and  _436
REMARK  182  A    between atoms: _438  and  _440
REMARK  183  A    between atoms: _440  and  _441
REMARK  184  A    between atoms: _440  and  _443
REMARK  185  A    between atoms: _443  and  _444
REMARK  186  A    between atoms: _450  and  _452
REMARK  187  A    between atoms: _452  and  _453
REMARK  188  A    between atoms: _452  and  _455
REMARK  189  A    between atoms: _455  and  _456
REMARK  190  A    between atoms: _459  and  _461
REMARK  191  A    between atoms: _461  and  _462
REMARK  192  A    between atoms: _461  and  _464
REMARK  193  A    between atoms: _464  and  _465
REMARK  194  A    between atoms: _465  and  _466
REMARK  195  A    between atoms: _471  and  _473
REMARK  196  A    between atoms: _473  and  _474
REMARK  197  A    between atoms: _473  and  _476
REMARK  198  A    between atoms: _476  and  _477
REMARK  199  A    between atoms: _477  and  _478
REMARK  200  A    between atoms: _478  and  _479
REMARK  201  A    between atoms: _479  and  _480
REMARK  202  A    between atoms: _484  and  _486
REMARK  203  A    between atoms: _486  and  _487
REMARK  204  A    between atoms: _486  and  _489
REMARK  205  A    between atoms: _489  and  _490
REMARK  206  A    between atoms: _493  and  _495
REMARK  207  A    between atoms: _495  and  _496
REMARK  208  A    between atoms: _495  and  _498
REMARK  209  A    between atoms: _498  and  _499
REMARK  210  A    between atoms: _504  and  _506
REMARK  211  A    between atoms: _506  and  _507
REMARK  212  A    between atoms: _506  and  _509
REMARK  213  A    between atoms: _509  and  _510
REMARK  214  A    between atoms: _513  and  _515
REMARK  215  A    between atoms: _515  and  _516
REMARK  216  A    between atoms: _515  and  _518
REMARK  217  A    between atoms: _518  and  _519
REMARK  218  A    between atoms: _519  and  _520
REMARK  219  A    between atoms: _520  and  _521
REMARK  220  A    between atoms: _530  and  _532
REMARK  221  A    between atoms: _532  and  _533
REMARK  222  A    between atoms: _532  and  _535
REMARK  223  A    between atoms: _535  and  _536
REMARK  224  A    between atoms: _539  and  _541
REMARK  225  A    between atoms: _541  and  _542
REMARK  226  A    between atoms: _541  and  _544
REMARK  227  A    between atoms: _544  and  _545
REMARK  228  A    between atoms: _545  and  _546
REMARK  229  A    between atoms: _549  and  _551
REMARK  230  A    between atoms: _551  and  _552
REMARK  231  A    between atoms: _551  and  _554
REMARK  232  A    between atoms: _554  and  _555
REMARK  233  A    between atoms: _561  and  _563
REMARK  234  A    between atoms: _563  and  _564
REMARK  235  A    between atoms: _563  and  _566
REMARK  236  A    between atoms: _566  and  _567
REMARK  237  A    between atoms: _571  and  _572
REMARK  238  A    between atoms: _577  and  _579
REMARK  239  A    between atoms: _579  and  _580
REMARK  240  A    between atoms: _579  and  _582
REMARK  241  A    between atoms: _582  and  _583
REMARK  242  A    between atoms: _583  and  _584
REMARK  243  A    between atoms: _589  and  _591
REMARK  244  A    between atoms: _591  and  _592
REMARK  245  A    between atoms: _591  and  _594
REMARK  246  A    between atoms: _597  and  _599
REMARK  247  A    between atoms: _599  and  _600
REMARK  248  A    between atoms: _599  and  _602
REMARK  249  A    between atoms: _602  and  _603
REMARK  250  A    between atoms: _603  and  _604
REMARK  251  A    between atoms: _606  and  _608
REMARK  252  A    between atoms: _608  and  _609
REMARK  253  A    between atoms: _612  and  _614
REMARK  254  A    between atoms: _614  and  _615
REMARK  255  A    between atoms: _614  and  _617
REMARK  256  A    between atoms: _617  and  _618
REMARK  257  A    between atoms: _621  and  _623
REMARK  258  A    between atoms: _623  and  _624
REMARK  259  A    between atoms: _627  and  _629
REMARK  260  A    between atoms: _629  and  _630
REMARK  261  A    between atoms: _629  and  _632
REMARK  262  A    between atoms: _632  and  _633
REMARK  263  A    between atoms: _636  and  _638
REMARK  264  A    between atoms: _638  and  _639
REMARK  265  A    between atoms: _638  and  _641
REMARK  266  A    between atoms: _641  and  _642
REMARK  267  A    between atoms: _645  and  _647
REMARK  268  A    between atoms: _647  and  _648
REMARK  269  A    between atoms: _647  and  _650
REMARK  270  A    between atoms: _650  and  _651
REMARK  271  A    between atoms: _654  and  _656
REMARK  272  A    between atoms: _656  and  _657
REMARK  273  A    between atoms: _656  and  _659
REMARK  274  A    between atoms: _659  and  _660
REMARK  275  A    between atoms: _660  and  _661
REMARK  276  A    between atoms: _666  and  _668
REMARK  277  A    between atoms: _668  and  _669
REMARK  278  A    between atoms: _672  and  _674
REMARK  279  A    between atoms: _674  and  _675
REMARK  280  A    between atoms: _674  and  _677
REMARK  281  A    between atoms: _680  and  _682
REMARK  282  A    between atoms: _682  and  _683
REMARK  283  A    between atoms: _682  and  _685
REMARK  284  A    between atoms: _685  and  _686
REMARK  285  A    between atoms: _689  and  _691
REMARK  286  A    between atoms: _691  and  _692
REMARK  287  A    between atoms: _691  and  _694
REMARK  288  A    between atoms: _694  and  _695
REMARK  289  A    between atoms: _695  and  _696
REMARK                            x       y       z     vdW  Elec       q    Type
REMARK                         _______ _______ _______ _____ _____    ______ ____
ROOT
ATOM      1  C   LEU A   1      17.419  61.794  33.700  0.00  0.00    +0.238 C 
ATOM      2  N   PHE A   2      17.077  60.564  34.076  0.00  0.00    -0.298 N 
ATOM      3  H   PHE A   2      16.380  60.433  34.837  0.00  0.00    +0.150 HD
ATOM      4  O   LEU A   1      18.245  61.991  32.796  0.00  0.00    -0.274 OA
ENDROOT
BRANCH   1   5
ATOM      5  CA  LEU A   1      16.749  62.980  34.412  0.00  0.00    +0.145 C 
BRANCH   5   6
ATOM      6  N   LEU A   1      15.309  62.758  34.611  0.00  0.00    -0.238 NA
ATOM      7  H   LEU A   1      14.920  62.674  35.572  0.00  0.00    +0.142 HD
ENDBRANCH   5   6
BRANCH   5   8
ATOM      8  CB  LEU A   1      17.458  63.262  35.752  0.00  0.00    +0.026 C 
BRANCH   8   9
ATOM      9  CG  LEU A   1      17.057  64.558  36.464  0.00  0.00    +0.002 C 
ATOM     10  CD2 LEU A   1      17.730  64.672  37.835  0.00  0.00    +0.000 C 
ATOM     11  CD1 LEU A   1      17.348  65.781  35.575  0.00  0.00    +0.000 C 
ENDBRANCH   8   9
ENDBRANCH   5   8
ENDBRANCH   1   5
BRANCH   2  12
ATOM     12  CA  PHE A   2      17.677  59.383  33.423  0.00  0.00    +0.141 C 
BRANCH  12  13
ATOM     13  C   PHE A   2      17.399  59.439  31.920  0.00  0.00    +0.227 C 
ATOM     14  O   PHE A   2      18.277  59.195  31.082  0.00  0.00    -0.286 OA
ENDBRANCH  12  13
BRANCH  12  15
ATOM     15  CB  PHE A   2      17.116  58.045  33.947  0.00  0.00    +0.054 C 
BRANCH  15  16
ATOM     16  CG  PHE A   2      17.273  57.840  35.423  0.00  0.00    -0.020 A 
ATOM     17  CD2 PHE A   2      16.305  57.150  36.142  0.00  0.00    -0.004 A 
ATOM     18  CE2 PHE A   2      16.435  56.975  37.539  0.00  0.00    -0.000 A 
ATOM     19  CZ  PHE A   2      17.549  57.478  38.181  0.00  0.00    -0.000 A 
ATOM     20  CE1 PHE A   2      18.514  58.198  37.468  0.00  0.00    -0.000 A 
ATOM     21  CD1 PHE A   2      18.390  58.336  36.090  0.00  0.00    -0.004 A 
ENDBRANCH  15  16
ENDBRANCH  12  15
ENDBRANCH   2  12
TORSDOF 8
REMARK  Name = ../refined-set-2016/3vjc/3vjc_pocket.pdb
REMARK  289 active torsions:
REMARK  status: ('A' for Active; 'I' for Inactive)
REMARK    1  A    between atoms: _1  and  _3
REMARK    2  A    between atoms: _3  and  _4
REMARK    3  A    between atoms: _3  and  _6
REMARK    4  A    between atoms: _6  and  _7
REMARK    5  A    between atoms: _10  and  _12
REMARK    6  A    between atoms: _12  and  _13
REMARK    7  A    between atoms: _12  and  _15
REMARK    8  A    between atoms: _15  and  _16
REMARK    9  A    between atoms: _21  and  _23
REMARK   10  A    between atoms: _23  and  _24
REMARK   11  A    between atoms: _23  and  _26
REMARK   12  A    between atoms: _26  and  _27
REMARK   13  A    between atoms: _27  and  _28
REMARK   14  A    between atoms: _33  and  _35
REMARK   15  A    between atoms: _35  and  _36
REMARK   16  A    between atoms: _35  and  _38
REMARK   17  A    between atoms: _38  and  _39
REMARK   18  A    between atoms: _42  and  _44
REMARK   19  A    between atoms: _44  and  _45
REMARK   20  A    between atoms: _44  and  _47
REMARK   21  A    between atoms: _47  and  _48
REMARK   22  A    between atoms: _50  and  _52
REMARK   23  A    between atoms: _52  and  _53
REMARK   24  A    between atoms: _52  and  _55
REMARK   25  A    between atoms: _55  and  _56
REMARK   26  A    between atoms: _56  and  _57
REMARK   27  A    between atoms: _57  and  _58
REMARK   28  A    between atoms: _67  and  _69
REMARK   29  A    between atoms: _69  and  _70
REMARK   30  A    between atoms: _69  and  _72
REMARK   31  A    between atoms: _72  and  _73
REMARK   32  A    between atoms: _75  and  _77
REMARK   33  A    between atoms: _77  and  _78
REMARK   34  A    between atoms: _77  and  _80
REMARK   35  A    between atoms: _80  and  _81
REMARK   36  A    between atoms: _87  and  _89
REMARK   37  A    between atoms: _89  and  _90
REMARK   38  A    between atoms: _93  and  _95
REMARK   39  A    between atoms: _95  and  _96
REMARK   40  A    between atoms: _99  and  _101
REMARK   41  A    between atoms: _101  and  _102
REMARK   42  A    between atoms: _101  and  _104
REMARK   43  A    between atoms: _107  and  _109
REMARK   44  A    between atoms: _109  and  _110
REMARK   45  A    between atoms: _109  and  _112
REMARK   46  A    between atoms: _112  and  _113
REMARK   47  A    between atoms: _116  and  _118
REMARK   48  A    between atoms: _118  and  _119
REMARK   49  A    between atoms: _118  and  _121
REMARK   50  A    between atoms: _121  and  _122
REMARK   51  A    between atoms: _125  and  _127
REMARK   52  A    between atoms: _127  and  _128
REMARK   53  A    between atoms: _131  and  _133
REMARK   54  A    between atoms: _133  and  _134
REMARK   55  A    between atoms: _133  and  _136
REMARK   56  A    between atoms: _139  and  _141
REMARK   57  A    between atoms: _141  and  _142
REMARK   58  A    between atoms: _141  and  _144
REMARK   59  A    between atoms: _146  and  _148
REMARK   60  A    between atoms: _148  and  _149
REMARK   61  A    between atoms: _148  and  _151
REMARK   62  A    between atoms: _151  and  _152
REMARK   63  A    between atoms: _155  and  _157
REMARK   64  A    between atoms: _157  and  _158
REMARK   65  A    between atoms: _157  and  _160
REMARK   66  A    between atoms: _160  and  _161
REMARK   67  A    between atoms: _167  and  _169
REMARK   68  A    between atoms: _169  and  _170
REMARK   69  A    between atoms: _169  and  _172
REMARK   70  A    between atoms: _172  and  _173
REMARK   71  A    between atoms: _178  and  _179
REMARK   72  A    between atoms: _181  and  _183
REMARK   73  A    between atoms: _183  and  _184
REMARK   74  A    between atoms: _183  and  _186
REMARK   75  A    between atoms: _186  and  _187
REMARK   76  A    between atoms: _190  and  _192
REMARK   77  A    between atoms: _192  and  _193
REMARK   78  A    between atoms: _192  and  _195
REMARK   79  A    between atoms: _198  and  _200
REMARK   80  A    between atoms: _200  and  _201
REMARK   81  A    between atoms: _200  and  _203
REMARK   82  A    between atoms: _203  and  _204
REMARK   83  A    between atoms: _207  and  _209
REMARK   84  A    between atoms: _209  and  _210
REMARK   85  A    between atoms: _209  and  _212
REMARK   86  A    between atoms: _212  and  _213
REMARK   87  A    between atoms: _213  and  _214
REMARK   88  A    between atoms: _214  and  _215
REMARK   89  A    between atoms: _224  and  _226
REMARK   90  A    between atoms: _226  and  _227
REMARK   91  A    between atoms: _230  and  _232
REMARK   92  A    between atoms: _232  and  _233
REMARK   93  A    between atoms: _232  and  _235
REMARK   94  A    between atoms: _235  and  _236
REMARK   95  A    between atoms: _239  and  _241
REMARK   96  A    between atoms: _241  and  _242
REMARK   97  A    between atoms: _241  and  _244
REMARK   98  A    between atoms: _244  and  _245
REMARK   99  A    between atoms: _248  and  _250
REMARK  100  A    between atoms: _250  and  _251
REMARK  101  A    between atoms: _250  and  _253
REMARK  102  A    between atoms: _253  and  _254
REMARK  103  A    between atoms: _257  and  _259
REMARK  104  A    between atoms: _259  and  _260
REMARK  105  A    between atoms: _259  and  _262
REMARK  106  A    between atoms: _262  and  _263
REMARK  107  A    between atoms: _263  and  _264
REMARK  108  A    between atoms: _267  and  _269
REMARK  109  A    between atoms: _269  and  _270
REMARK  110  A    between atoms: _269  and  _272
REMARK  111  A    between atoms: _272  and  _273
REMARK  112  A    between atoms: _276  and  _278
REMARK  113  A    between atoms: _278  and  _279
REMARK  114  A    between atoms: _278  and  _281
REMARK  115  A    between atoms: _281  and  _282
REMARK  116  A    between atoms: _282  and  _283
REMARK  117  A    between atoms: _283  and  _284
REMARK  118  A    between atoms: _284  and  _285
REMARK  119  A    between atoms: _289  and  _291
REMARK  120  A    between atoms: _291  and  _292
REMARK  121  A    between atoms: _291  and  _294
REMARK  122  A    between atoms: _294  and  _295
REMARK  123  A    between atoms: _298  and  _300
REMARK  124  A    between atoms: _300  and  _301
REMARK  125  A    between atoms: _300  and  _303
REMARK  126  A    between atoms: _303  and  _304
REMARK  127  A    between atoms: _307  and  _309
REMARK  128  A    between atoms: _309  and  _310
REMARK  129  A    between atoms: _309  and  _312
REMARK  130  A    between atoms: _312  and  _313
REMARK  131  A    between atoms: _313  and  _314
REMARK  132  A    between atoms: _316  and  _318
REMARK  133  A    between atoms: _318  and  _319
REMARK  134  A    between atoms: _318  and  _321
REMARK  135  A    between atoms: _321  and  _322
REMARK  136  A    between atoms: _322  and  _323
REMARK  137  A    between atoms: _325  and  _327
REMARK  138  A    between atoms: _327  and  _328
REMARK  139  A    between atoms: _327  and  _330
REMARK  140  A    between atoms: _330  and  _331
REMARK  141  A    between atoms: _336  and  _337
REMARK  142  A    between atoms: _339  and  _341
REMARK  143  A    between atoms: _341  and  _342
REMARK  144  A    between atoms: _341  and  _344
REMARK  145  A    between atoms: _344  and  _345
REMARK  146  A    between atoms: _350  and  _351
REMARK  147  A    between atoms: _353  and  _355
REMARK  148  A    between atoms: _355  and  _356
REMARK  149  A    between atoms: _355  and  _358
REMARK  150  A    between atoms: _361  and  _363
REMARK  151  A    between atoms: _363  and  _364
REMARK  152  A    between atoms: _367  and  _369
REMARK  153  A    between atoms: _369  and  _370
REMARK  154  A    between atoms: _372  and  _374
REMARK  155  A    between atoms: _374  and  _375
REMARK  156  A    between atoms: _374  and  _377
REMARK  157  A    between atoms: _377  and  _378
REMARK  158  A    between atoms: _381  and  _383
REMARK  159  A    between atoms: _383  and  _384
REMARK  160  A    between atoms: _383  and  _386
REMARK  161  A    between atoms: _389  and  _391
REMARK  162  A    between atoms: _391  and  _392
REMARK  163  A    between atoms: _394  and  _396
REMARK  164  A    between atoms: _396  and  _397
REMARK  165  A    between atoms: _399  and  _401
REMARK  166  A    between atoms: _401  and  _402
REMARK  167  A    between atoms: _401  and  _404
REMARK  168  A    between atoms: _404  and  _405
REMARK  169  A    between atoms: _408  and  _410
REMARK  170  A    between atoms: _410  and  _411
REMARK  171  A    between atoms: _410  and  _413
REMARK  172  A    between atoms: _413  and  _414
REMARK  173  A    between atoms: _417  and  _419
REMARK  174  A    between atoms: _419  and  _420
REMARK  175  A    between atoms: _419  and  _422
REMARK  176  A    between atoms: _422  and  _423
REMARK  177  A    between atoms: _429  and  _431
REMARK  178  A    between atoms: _431  and  _432
REMARK  179  A    between atoms: _431  and  _434
REMARK  180  A    between atoms: _434  and  _435
REMARK  181  A    between atoms: _435  and  _436
REMARK  182  A    between atoms: _438  and  _440
REMARK  183  A    between atoms: _440  and  _441
REMARK  184  A    between atoms: _440  and  _443
REMARK  185  A    between atoms: _443  and  _444
REMARK  186  A    between atoms: _450  and  _452
REMARK  187  A    between atoms: _452  and  _453
REMARK  188  A    between atoms: _452  and  _455
REMARK  189  A    between atoms: _455  and  _456
REMARK  190  A    between atoms: _459  and  _461
REMARK  191  A    between atoms: _461  and  _462
REMARK  192  A    between atoms: _461  and  _464
REMARK  193  A    between atoms: _464  and  _465
REMARK  194  A    between atoms: _465  and  _466
REMARK  195  A    between atoms: _471  and  _473
REMARK  196  A    between atoms: _473  and  _474
REMARK  197  A    between atoms: _473  and  _476
REMARK  198  A    between atoms: _476  and  _477
REMARK  199  A    between atoms: _477  and  _478
REMARK  200  A    between atoms: _478  and  _479
REMARK  201  A    between atoms: _479  and  _480
REMARK  202  A    between atoms: _484  and  _486
REMARK  203  A    between atoms: _486  and  _487
REMARK  204  A    between atoms: _486  and  _489
REMARK  205  A    between atoms: _489  and  _490
REMARK  206  A    between atoms: _493  and  _495
REMARK  207  A    between atoms: _495  and  _496
REMARK  208  A    between atoms: _495  and  _498
REMARK  209  A    between atoms: _498  and  _499
REMARK  210  A    between atoms: _504  and  _506
REMARK  211  A    between atoms: _506  and  _507
REMARK  212  A    between atoms: _506  and  _509
REMARK  213  A    between atoms: _509  and  _510
REMARK  214  A    between atoms: _513  and  _515
REMARK  215  A    between atoms: _515  and  _516
REMARK  216  A    between atoms: _515  and  _518
REMARK  217  A    between atoms: _518  and  _519
REMARK  218  A    between atoms: _519  and  _520
REMARK  219  A    between atoms: _520  and  _521
REMARK  220  A    between atoms: _530  and  _532
REMARK  221  A    between atoms: _532  and  _533
REMARK  222  A    between atoms: _532  and  _535
REMARK  223  A    between atoms: _535  and  _536
REMARK  224  A    between atoms: _539  and  _541
REMARK  225  A    between atoms: _541  and  _542
REMARK  226  A    between atoms: _541  and  _544
REMARK  227  A    between atoms: _544  and  _545
REMARK  228  A    between atoms: _545  and  _546
REMARK  229  A    between atoms: _549  and  _551
REMARK  230  A    between atoms: _551  and  _552
REMARK  231  A    between atoms: _551  and  _554
REMARK  232  A    between atoms: _554  and  _555
REMARK  233  A    between atoms: _561  and  _563
REMARK  234  A    between atoms: _563  and  _564
REMARK  235  A    between atoms: _563  and  _566
REMARK  236  A    between atoms: _566  and  _567
REMARK  237  A    between atoms: _571  and  _572
REMARK  238  A    between atoms: _577  and  _579
REMARK  239  A    between atoms: _579  and  _580
REMARK  240  A    between atoms: _579  and  _582
REMARK  241  A    between atoms: _582  and  _583
REMARK  242  A    between atoms: _583  and  _584
REMARK  243  A    between atoms: _589  and  _591
REMARK  244  A    between atoms: _591  and  _592
REMARK  245  A    between atoms: _591  and  _594
REMARK  246  A    between atoms: _597  and  _599
REMARK  247  A    between atoms: _599  and  _600
REMARK  248  A    between atoms: _599  and  _602
REMARK  249  A    between atoms: _602  and  _603
REMARK  250  A    between atoms: _603  and  _604
REMARK  251  A    between atoms: _606  and  _608
REMARK  252  A    between atoms: _608  and  _609
REMARK  253  A    between atoms: _612  and  _614
REMARK  254  A    between atoms: _614  and  _615
REMARK  255  A    between atoms: _614  and  _617
REMARK  256  A    between atoms: _617  and  _618
REMARK  257  A    between atoms: _621  and  _623
REMARK  258  A    between atoms: _623  and  _624
REMARK  259  A    between atoms: _627  and  _629
REMARK  260  A    between atoms: _629  and  _630
REMARK  261  A    between atoms: _629  and  _632
REMARK  262  A    between atoms: _632  and  _633
REMARK  263  A    between atoms: _636  and  _638
REMARK  264  A    between atoms: _638  and  _639
REMARK  265  A    between atoms: _638  and  _641
REMARK  266  A    between atoms: _641  and  _642
REMARK  267  A    between atoms: _645  and  _647
REMARK  268  A    between atoms: _647  and  _648
REMARK  269  A    between atoms: _647  and  _650
REMARK  270  A    between atoms: _650  and  _651
REMARK  271  A    between atoms: _654  and  _656
REMARK  272  A    between atoms: _656  and  _657
REMARK  273  A    between atoms: _656  and  _659
REMARK  274  A    between atoms: _659  and  _660
REMARK  275  A    between atoms: _660  and  _661
REMARK  276  A    between atoms: _666  and  _668
REMARK  277  A    between atoms: _668  and  _669
REMARK  278  A    between atoms: _672  and  _674
REMARK  279  A    between atoms: _674  and  _675
REMARK  280  A    between atoms: _674  and  _677
REMARK  281  A    between atoms: _680  and  _682
REMARK  282  A    between atoms: _682  and  _683
REMARK  283  A    between atoms: _682  and  _685
REMARK  284  A    between atoms: _685  and  _686
REMARK  285  A    between atoms: _689  and  _691
REMARK  286  A    between atoms: _691  and  _692
REMARK  287  A    between atoms: _691  and  _694
REMARK  288  A    between atoms: _694  and  _695
REMARK  289  A    between atoms: _695  and  _696
REMARK                            x       y       z     vdW  Elec       q    Type
REMARK                         _______ _______ _______ _____ _____    ______ ____
ROOT
ATOM      1  CA  MET A   1       8.926  54.016  43.542  0.00  0.00    +0.134 C 
ENDROOT
BRANCH   1   2
ATOM      2  N   MET A   1       7.565  54.210  43.001  0.00  0.00    -0.239 NA
ATOM      3  H   MET A   1       7.452  54.434  41.992  0.00  0.00    +0.142 HD
ENDBRANCH   1   2
BRANCH   1   4
ATOM      4  C   MET A   1       9.112  54.948  44.736  0.00  0.00    +0.224 C 
ATOM      5  O   MET A   1       9.595  54.527  45.776  0.00  0.00    -0.287 OA
ENDBRANCH   1   4
BRANCH   1   6
ATOM      6  CB  MET A   1      10.010  54.314  42.493  0.00  0.00    +0.037 C 
BRANCH   6   7
ATOM      7  CG  MET A   1      10.020  53.369  41.260  0.00  0.00    +0.059 C 
BRANCH   7   8
ATOM      8  SD  MET A   1      10.863  51.809  41.612  0.00  0.00    -0.139 S 
ATOM      9  CE  MET A   1      12.578  52.328  41.545  0.00  0.00    +0.069 C 
ENDBRANCH   7   8
ENDBRANCH   6   7
ENDBRANCH   1   6
TORSDOF 5
REMARK  Name = ../refined-set-2016/3vjc/3vjc_pocket.pdb
REMARK  289 active torsions:
REMARK  status: ('A' for Active; 'I' for Inactive)
REMARK    1  A    between atoms: _1  and  _3
REMARK    2  A    between atoms: _3  and  _4
REMARK    3  A    between atoms: _3  and  _6
REMARK    4  A    between atoms: _6  and  _7
REMARK    5  A    between atoms: _10  and  _12
REMARK    6  A    between atoms: _12  and  _13
REMARK    7  A    between atoms: _12  and  _15
REMARK    8  A    between atoms: _15  and  _16
REMARK    9  A    between atoms: _21  and  _23
REMARK   10  A    between atoms: _23  and  _24
REMARK   11  A    between atoms: _23  and  _26
REMARK   12  A    between atoms: _26  and  _27
REMARK   13  A    between atoms: _27  and  _28
REMARK   14  A    between atoms: _33  and  _35
REMARK   15  A    between atoms: _35  and  _36
REMARK   16  A    between atoms: _35  and  _38
REMARK   17  A    between atoms: _38  and  _39
REMARK   18  A    between atoms: _42  and  _44
REMARK   19  A    between atoms: _44  and  _45
REMARK   20  A    between atoms: _44  and  _47
REMARK   21  A    between atoms: _47  and  _48
REMARK   22  A    between atoms: _50  and  _52
REMARK   23  A    between atoms: _52  and  _53
REMARK   24  A    between atoms: _52  and  _55
REMARK   25  A    between atoms: _55  and  _56
REMARK   26  A    between atoms: _56  and  _57
REMARK   27  A    between atoms: _57  and  _58
REMARK   28  A    between atoms: _67  and  _69
REMARK   29  A    between atoms: _69  and  _70
REMARK   30  A    between atoms: _69  and  _72
REMARK   31  A    between atoms: _72  and  _73
REMARK   32  A    between atoms: _75  and  _77
REMARK   33  A    between atoms: _77  and  _78
REMARK   34  A    between atoms: _77  and  _80
REMARK   35  A    between atoms: _80  and  _81
REMARK   36  A    between atoms: _87  and  _89
REMARK   37  A    between atoms: _89  and  _90
REMARK   38  A    between atoms: _93  and  _95
REMARK   39  A    between atoms: _95  and  _96
REMARK   40  A    between atoms: _99  and  _101
REMARK   41  A    between atoms: _101  and  _102
REMARK   42  A    between atoms: _101  and  _104
REMARK   43  A    between atoms: _107  and  _109
REMARK   44  A    between atoms: _109  and  _110
REMARK   45  A    between atoms: _109  and  _112
REMARK   46  A    between atoms: _112  and  _113
REMARK   47  A    between atoms: _116  and  _118
REMARK   48  A    between atoms: _118  and  _119
REMARK   49  A    between atoms: _118  and  _121
REMARK   50  A    between atoms: _121  and  _122
REMARK   51  A    between atoms: _125  and  _127
REMARK   52  A    between atoms: _127  and  _128
REMARK   53  A    between atoms: _131  and  _133
REMARK   54  A    between atoms: _133  and  _134
REMARK   55  A    between atoms: _133  and  _136
REMARK   56  A    between atoms: _139  and  _141
REMARK   57  A    between atoms: _141  and  _142
REMARK   58  A    between atoms: _141  and  _144
REMARK   59  A    between atoms: _146  and  _148
REMARK   60  A    between atoms: _148  and  _149
REMARK   61  A    between atoms: _148  and  _151
REMARK   62  A    between atoms: _151  and  _152
REMARK   63  A    between atoms: _155  and  _157
REMARK   64  A    between atoms: _157  and  _158
REMARK   65  A    between atoms: _157  and  _160
REMARK   66  A    between atoms: _160  and  _161
REMARK   67  A    between atoms: _167  and  _169
REMARK   68  A    between atoms: _169  and  _170
REMARK   69  A    between atoms: _169  and  _172
REMARK   70  A    between atoms: _172  and  _173
REMARK   71  A    between atoms: _178  and  _179
REMARK   72  A    between atoms: _181  and  _183
REMARK   73  A    between atoms: _183  and  _184
REMARK   74  A    between atoms: _183  and  _186
REMARK   75  A    between atoms: _186  and  _187
REMARK   76  A    between atoms: _190  and  _192
REMARK   77  A    between atoms: _192  and  _193
REMARK   78  A    between atoms: _192  and  _195
REMARK   79  A    between atoms: _198  and  _200
REMARK   80  A    between atoms: _200  and  _201
REMARK   81  A    between atoms: _200  and  _203
REMARK   82  A    between atoms: _203  and  _204
REMARK   83  A    between atoms: _207  and  _209
REMARK   84  A    between atoms: _209  and  _210
REMARK   85  A    between atoms: _209  and  _212
REMARK   86  A    between atoms: _212  and  _213
REMARK   87  A    between atoms: _213  and  _214
REMARK   88  A    between atoms: _214  and  _215
REMARK   89  A    between atoms: _224  and  _226
REMARK   90  A    between atoms: _226  and  _227
REMARK   91  A    between atoms: _230  and  _232
REMARK   92  A    between atoms: _232  and  _233
REMARK   93  A    between atoms: _232  and  _235
REMARK   94  A    between atoms: _235  and  _236
REMARK   95  A    between atoms: _239  and  _241
REMARK   96  A    between atoms: _241  and  _242
REMARK   97  A    between atoms: _241  and  _244
REMARK   98  A    between atoms: _244  and  _245
REMARK   99  A    between atoms: _248  and  _250
REMARK  100  A    between atoms: _250  and  _251
REMARK  101  A    between atoms: _250  and  _253
REMARK  102  A    between atoms: _253  and  _254
REMARK  103  A    between atoms: _257  and  _259
REMARK  104  A    between atoms: _259  and  _260
REMARK  105  A    between atoms: _259  and  _262
REMARK  106  A    between atoms: _262  and  _263
REMARK  107  A    between atoms: _263  and  _264
REMARK  108  A    between atoms: _267  and  _269
REMARK  109  A    between atoms: _269  and  _270
REMARK  110  A    between atoms: _269  and  _272
REMARK  111  A    between atoms: _272  and  _273
REMARK  112  A    between atoms: _276  and  _278
REMARK  113  A    between atoms: _278  and  _279
REMARK  114  A    between atoms: _278  and  _281
REMARK  115  A    between atoms: _281  and  _282
REMARK  116  A    between atoms: _282  and  _283
REMARK  117  A    between atoms: _283  and  _284
REMARK  118  A    between atoms: _284  and  _285
REMARK  119  A    between atoms: _289  and  _291
REMARK  120  A    between atoms: _291  and  _292
REMARK  121  A    between atoms: _291  and  _294
REMARK  122  A    between atoms: _294  and  _295
REMARK  123  A    between atoms: _298  and  _300
REMARK  124  A    between atoms: _300  and  _301
REMARK  125  A    between atoms: _300  and  _303
REMARK  126  A    between atoms: _303  and  _304
REMARK  127  A    between atoms: _307  and  _309
REMARK  128  A    between atoms: _309  and  _310
REMARK  129  A    between atoms: _309  and  _312
REMARK  130  A    between atoms: _312  and  _313
REMARK  131  A    between atoms: _313  and  _314
REMARK  132  A    between atoms: _316  and  _318
REMARK  133  A    between atoms: _318  and  _319
REMARK  134  A    between atoms: _318  and  _321
REMARK  135  A    between atoms: _321  and  _322
REMARK  136  A    between atoms: _322  and  _323
REMARK  137  A    between atoms: _325  and  _327
REMARK  138  A    between atoms: _327  and  _328
REMARK  139  A    between atoms: _327  and  _330
REMARK  140  A    between atoms: _330  and  _331
REMARK  141  A    between atoms: _336  and  _337
REMARK  142  A    between atoms: _339  and  _341
REMARK  143  A    between atoms: _341  and  _342
REMARK  144  A    between atoms: _341  and  _344
REMARK  145  A    between atoms: _344  and  _345
REMARK  146  A    between atoms: _350  and  _351
REMARK  147  A    between atoms: _353  and  _355
REMARK  148  A    between atoms: _355  and  _356
REMARK  149  A    between atoms: _355  and  _358
REMARK  150  A    between atoms: _361  and  _363
REMARK  151  A    between atoms: _363  and  _364
REMARK  152  A    between atoms: _367  and  _369
REMARK  153  A    between atoms: _369  and  _370
REMARK  154  A    between atoms: _372  and  _374
REMARK  155  A    between atoms: _374  and  _375
REMARK  156  A    between atoms: _374  and  _377
REMARK  157  A    between atoms: _377  and  _378
REMARK  158  A    between atoms: _381  and  _383
REMARK  159  A    between atoms: _383  and  _384
REMARK  160  A    between atoms: _383  and  _386
REMARK  161  A    between atoms: _389  and  _391
REMARK  162  A    between atoms: _391  and  _392
REMARK  163  A    between atoms: _394  and  _396
REMARK  164  A    between atoms: _396  and  _397
REMARK  165  A    between atoms: _399  and  _401
REMARK  166  A    between atoms: _401  and  _402
REMARK  167  A    between atoms: _401  and  _404
REMARK  168  A    between atoms: _404  and  _405
REMARK  169  A    between atoms: _408  and  _410
REMARK  170  A    between atoms: _410  and  _411
REMARK  171  A    between atoms: _410  and  _413
REMARK  172  A    between atoms: _413  and  _414
REMARK  173  A    between atoms: _417  and  _419
REMARK  174  A    between atoms: _419  and  _420
REMARK  175  A    between atoms: _419  and  _422
REMARK  176  A    between atoms: _422  and  _423
REMARK  177  A    between atoms: _429  and  _431
REMARK  178  A    between atoms: _431  and  _432
REMARK  179  A    between atoms: _431  and  _434
REMARK  180  A    between atoms: _434  and  _435
REMARK  181  A    between atoms: _435  and  _436
REMARK  182  A    between atoms: _438  and  _440
REMARK  183  A    between atoms: _440  and  _441
REMARK  184  A    between atoms: _440  and  _443
REMARK  185  A    between atoms: _443  and  _444
REMARK  186  A    between atoms: _450  and  _452
REMARK  187  A    between atoms: _452  and  _453
REMARK  188  A    between atoms: _452  and  _455
REMARK  189  A    between atoms: _455  and  _456
REMARK  190  A    between atoms: _459  and  _461
REMARK  191  A    between atoms: _461  and  _462
REMARK  192  A    between atoms: _461  and  _464
REMARK  193  A    between atoms: _464  and  _465
REMARK  194  A    between atoms: _465  and  _466
REMARK  195  A    between atoms: _471  and  _473
REMARK  196  A    between atoms: _473  and  _474
REMARK  197  A    between atoms: _473  and  _476
REMARK  198  A    between atoms: _476  and  _477
REMARK  199  A    between atoms: _477  and  _478
REMARK  200  A    between atoms: _478  and  _479
REMARK  201  A    between atoms: _479  and  _480
REMARK  202  A    between atoms: _484  and  _486
REMARK  203  A    between atoms: _486  and  _487
REMARK  204  A    between atoms: _486  and  _489
REMARK  205  A    between atoms: _489  and  _490
REMARK  206  A    between atoms: _493  and  _495
REMARK  207  A    between atoms: _495  and  _496
REMARK  208  A    between atoms: _495  and  _498
REMARK  209  A    between atoms: _498  and  _499
REMARK  210  A    between atoms: _504  and  _506
REMARK  211  A    between atoms: _506  and  _507
REMARK  212  A    between atoms: _506  and  _509
REMARK  213  A    between atoms: _509  and  _510
REMARK  214  A    between atoms: _513  and  _515
REMARK  215  A    between atoms: _515  and  _516
REMARK  216  A    between atoms: _515  and  _518
REMARK  217  A    between atoms: _518  and  _519
REMARK  218  A    between atoms: _519  and  _520
REMARK  219  A    between atoms: _520  and  _521
REMARK  220  A    between atoms: _530  and  _532
REMARK  221  A    between atoms: _532  and  _533
REMARK  222  A    between atoms: _532  and  _535
REMARK  223  A    between atoms: _535  and  _536
REMARK  224  A    between atoms: _539  and  _541
REMARK  225  A    between atoms: _541  and  _542
REMARK  226  A    between atoms: _541  and  _544
REMARK  227  A    between atoms: _544  and  _545
REMARK  228  A    between atoms: _545  and  _546
REMARK  229  A    between atoms: _549  and  _551
REMARK  230  A    between atoms: _551  and  _552
REMARK  231  A    between atoms: _551  and  _554
REMARK  232  A    between atoms: _554  and  _555
REMARK  233  A    between atoms: _561  and  _563
REMARK  234  A    between atoms: _563  and  _564
REMARK  235  A    between atoms: _563  and  _566
REMARK  236  A    between atoms: _566  and  _567
REMARK  237  A    between atoms: _571  and  _572
REMARK  238  A    between atoms: _577  and  _579
REMARK  239  A    between atoms: _579  and  _580
REMARK  240  A    between atoms: _579  and  _582
REMARK  241  A    between atoms: _582  and  _583
REMARK  242  A    between atoms: _583  and  _584
REMARK  243  A    between atoms: _589  and  _591
REMARK  244  A    between atoms: _591  and  _592
REMARK  245  A    between atoms: _591  and  _594
REMARK  246  A    between atoms: _597  and  _599
REMARK  247  A    between atoms: _599  and  _600
REMARK  248  A    between atoms: _599  and  _602
REMARK  249  A    between atoms: _602  and  _603
REMARK  250  A    between atoms: _603  and  _604
REMARK  251  A    between atoms: _606  and  _608
REMARK  252  A    between atoms: _608  and  _609
REMARK  253  A    between atoms: _612  and  _614
REMARK  254  A    between atoms: _614  and  _615
REMARK  255  A    between atoms: _614  and  _617
REMARK  256  A    between atoms: _617  and  _618
REMARK  257  A    between atoms: _621  and  _623
REMARK  258  A    between atoms: _623  and  _624
REMARK  259  A    between atoms: _627  and  _629
REMARK  260  A    between atoms: _629  and  _630
REMARK  261  A    between atoms: _629  and  _632
REMARK  262  A    between atoms: _632  and  _633
REMARK  263  A    between atoms: _636  and  _638
REMARK  264  A    between atoms: _638  and  _639
REMARK  265  A    between atoms: _638  and  _641
REMARK  266  A    between atoms: _641  and  _642
REMARK  267  A    between atoms: _645  and  _647
REMARK  268  A    between atoms: _647  and  _648
REMARK  269  A    between atoms: _647  and  _650
REMARK  270  A    between atoms: _650  and  _651
REMARK  271  A    between atoms: _654  and  _656
REMARK  272  A    between atoms: _656  and  _657
REMARK  273  A    between atoms: _656  and  _659
REMARK  274  A    between atoms: _659  and  _660
REMARK  275  A    between atoms: _660  and  _661
REMARK  276  A    between atoms: _666  and  _668
REMARK  277  A    between atoms: _668  and  _669
REMARK  278  A    between atoms: _672  and  _674
REMARK  279  A    between atoms: _674  and  _675
REMARK  280  A    between atoms: _674  and  _677
REMARK  281  A    between atoms: _680  and  _682
REMARK  282  A    between atoms: _682  and  _683
REMARK  283  A    between atoms: _682  and  _685
REMARK  284  A    between atoms: _685  and  _686
REMARK  285  A    between atoms: _689  and  _691
REMARK  286  A    between atoms: _691  and  _692
REMARK  287  A    between atoms: _691  and  _694
REMARK  288  A    between atoms: _694  and  _695
REMARK  289  A    between atoms: _695  and  _696
REMARK                            x       y       z     vdW  Elec       q    Type
REMARK                         _______ _______ _______ _____ _____    ______ ____
ROOT
ATOM      1  CA  LYS A   4       5.725  54.974  53.304  0.00  0.00    +0.149 C 
ENDROOT
BRANCH   1   4
ATOM      2  C   GLN A   3       7.528  56.541  52.831  0.00  0.00    +0.241 C 
ATOM      3  O   GLN A   3       7.650  56.842  54.027  0.00  0.00    -0.273 OA
ATOM      4  N   LYS A   4       6.600  55.699  52.379  0.00  0.00    -0.297 N 
ATOM      5  H   LYS A   4       6.495  55.554  51.355  0.00  0.00    +0.150 HD
BRANCH   2   6
ATOM      6  CA  GLN A   3       8.457  57.166  51.793  0.00  0.00    +0.149 C 
BRANCH   6   9
ATOM      7  C   LEU A   2       9.775  55.245  51.146  0.00  0.00    +0.241 C 
ATOM      8  O   LEU A   2      10.115  55.032  52.299  0.00  0.00    -0.273 OA
ATOM      9  N   GLN A   3       8.905  56.187  50.809  0.00  0.00    -0.297 N 
ATOM     10  H   GLN A   3       8.539  56.228  49.836  0.00  0.00    +0.150 HD
BRANCH   7  11
ATOM     11  CA  LEU A   2      10.286  54.372  50.010  0.00  0.00    +0.149 C 
BRANCH  11  14
ATOM     12  C   PHE A   1       8.195  53.244  49.548  0.00  0.00    +0.239 C 
ATOM     13  O   PHE A   1       8.090  52.856  50.723  0.00  0.00    -0.274 OA
ATOM     14  N   LEU A   2       9.193  54.014  49.119  0.00  0.00    -0.297 N 
ATOM     15  H   LEU A   2       9.191  54.362  48.139  0.00  0.00    +0.150 HD
BRANCH  12  16
ATOM     16  CA  PHE A   1       7.120  52.916  48.510  0.00  0.00    +0.149 C 
BRANCH  16  17
ATOM     17  N   PHE A   1       6.726  54.117  47.775  0.00  0.00    -0.238 NA
ATOM     18  H   PHE A   1       6.887  54.183  46.750  0.00  0.00    +0.142 HD
ENDBRANCH  16  17
BRANCH  16  19
ATOM     19  CB  PHE A   1       7.565  51.783  47.576  0.00  0.00    +0.053 C 
BRANCH  19  20
ATOM     20  CG  PHE A   1       7.802  50.494  48.308  0.00  0.00    -0.020 A 
ATOM     21  CD2 PHE A   1       6.736  49.802  48.884  0.00  0.00    -0.004 A 
ATOM     22  CE2 PHE A   1       6.948  48.599  49.560  0.00  0.00    -0.000 A 
ATOM     23  CZ  PHE A   1       8.233  48.109  49.677  0.00  0.00    -0.000 A 
ATOM     24  CE1 PHE A   1       9.311  48.818  49.128  0.00  0.00    -0.000 A 
ATOM     25  CD1 PHE A   1       9.091  49.989  48.446  0.00  0.00    -0.004 A 
ENDBRANCH  19  20
ENDBRANCH  16  19
ENDBRANCH  12  16
ENDBRANCH  11  14
BRANCH  11  26
ATOM     26  CB  LEU A   2      11.395  55.120  49.260  0.00  0.00    +0.029 C 
BRANCH  26  27
ATOM     27  CG  LEU A   2      12.146  54.319  48.187  0.00  0.00    +0.002 C 
ATOM     28  CD2 LEU A   2      12.542  52.899  48.640  0.00  0.00    +0.000 C 
ATOM     29  CD1 LEU A   2      13.397  55.091  47.751  0.00  0.00    +0.000 C 
ENDBRANCH  26  27
ENDBRANCH  11  26
ENDBRANCH   7  11
ENDBRANCH   6   9
BRANCH   6  30
ATOM     30  CB  GLN A   3       7.758  58.321  51.079  0.00  0.00    +0.039 C 
BRANCH  30  31
ATOM     31  CG  GLN A   3       7.394  59.488  52.007  0.00  0.00    +0.087 C 
BRANCH  31  32
ATOM     32  CD  GLN A   3       8.633  60.153  52.588  0.00  0.00    +0.219 C 
ATOM     33  NE2 GLN A   3       8.820  60.038  53.884  0.00  0.00    -0.329 N 
ATOM     34 HE21 GLN A   3       8.133  59.515  54.464  0.00  0.00    +0.145 HD
ATOM     35 HE22 GLN A   3       9.655  60.470  54.329  0.00  0.00    +0.145 HD
ATOM     36  OE1 GLN A   3       9.413  60.756  51.876  0.00  0.00    -0.275 OA
ENDBRANCH  31  32
ENDBRANCH  30  31
ENDBRANCH   6  30
ENDBRANCH   2   6
ENDBRANCH   1   4
BRANCH   1  37
ATOM     37  C   LYS A   4       6.533  54.056  54.209  0.00  0.00    +0.241 C 
ATOM     38  O   LYS A   4       6.248  53.997  55.408  0.00  0.00    -0.273 OA
ATOM     39  N   THR A   5       7.536  53.370  53.658  0.00  0.00    -0.295 N 
ATOM     40  H   THR A   5       7.704  53.427  52.633  0.00  0.00    +0.150 HD
BRANCH  39  41
ATOM     41  CA  THR A   5       8.406  52.532  54.502  0.00  0.00    +0.176 C 
BRANCH  41  42
ATOM     42  C   THR A   5       9.086  53.357  55.592  0.00  0.00    +0.243 C 
ATOM     43  O   THR A   5       9.153  52.970  56.781  0.00  0.00    -0.273 OA
ATOM     44  N   ASN A   6       9.645  54.492  55.179  0.00  0.00    -0.297 N 
ATOM     45  H   ASN A   6       9.616  54.752  54.172  0.00  0.00    +0.150 HD
BRANCH  44  46
ATOM     46  CA  ASN A   6      10.301  55.373  56.147  0.00  0.00    +0.158 C 
BRANCH  46  47
ATOM     47  C   ASN A   6       9.351  55.838  57.234  0.00  0.00    +0.241 C 
ATOM     48  O   ASN A   6       9.737  55.872  58.394  0.00  0.00    -0.273 OA
ATOM     49  N   ILE A   7       8.158  56.267  56.837  0.00  0.00    -0.298 N 
ATOM     50  H   ILE A   7       7.934  56.254  55.822  0.00  0.00    +0.150 HD
BRANCH  49  51
ATOM     51  CA  ILE A   7       7.146  56.758  57.776  0.00  0.00    +0.137 C 
BRANCH  51  52
ATOM     52  C   ILE A   7       6.709  55.661  58.751  0.00  0.00    +0.227 C 
ATOM     53  O   ILE A   7       6.587  55.891  59.966  0.00  0.00    -0.286 OA
ENDBRANCH  51  52
BRANCH  51  54
ATOM     54  CB  ILE A   7       5.937  57.322  57.001  0.00  0.00    +0.026 C 
ATOM     55  CG2 ILE A   7       4.689  57.411  57.909  0.00  0.00    +0.002 C 
BRANCH  54  56
ATOM     56  CG1 ILE A   7       6.322  58.716  56.483  0.00  0.00    +0.002 C 
ATOM     57  CD1 ILE A   7       5.399  59.252  55.405  0.00  0.00    +0.000 C 
ENDBRANCH  54  56
ENDBRANCH  51  54
ENDBRANCH  49  51
ENDBRANCH  46  47
BRANCH  46  58
ATOM     58  CB  ASN A   6      10.865  56.629  55.467  0.00  0.00    +0.114 C 
BRANCH  58  59
ATOM     59  CG  ASN A   6      12.175  56.353  54.769  0.00  0.00    +0.222 C 
ATOM     60  OD1 ASN A   6      13.030  55.634  55.294  0.00  0.00    -0.275 OA
ATOM     61  ND2 ASN A   6      12.362  56.948  53.596  0.00  0.00    -0.329 N 
ATOM     62 HD21 ASN A   6      11.613  57.546  53.191  0.00  0.00    +0.145 HD
ATOM     63 HD22 ASN A   6      13.257  56.816  53.083  0.00  0.00    +0.145 HD
ENDBRANCH  58  59
ENDBRANCH  46  58
ENDBRANCH  44  46
ENDBRANCH  41  42
BRANCH  41  64
ATOM     64  CB  THR A   5       9.435  51.745  53.638  0.00  0.00    +0.137 C 
ATOM     65  CG2 THR A   5      10.312  50.838  54.505  0.00  0.00    +0.034 C 
BRANCH  64  66
ATOM     66  OG1 THR A   5       8.720  50.889  52.742  0.00  0.00    -0.382 OA
ATOM     67  HG1 THR A   5       8.138  51.437  52.158  0.00  0.00    +0.210 HD
ENDBRANCH  64  66
ENDBRANCH  41  64
ENDBRANCH  39  41
ENDBRANCH   1  37
BRANCH   1  68
ATOM     68  CB  LYS A   4       4.655  54.153  52.580  0.00  0.00    +0.029 C 
BRANCH  68  69
ATOM     69  CG  LYS A   4       3.562  55.030  51.969  0.00  0.00    +0.000 C 
BRANCH  69  70
ATOM     70  CD  LYS A   4       2.563  54.179  51.186  0.00  0.00    -0.024 C 
BRANCH  70  71
ATOM     71  CE  LYS A   4       1.502  55.052  50.571  0.00  0.00    -0.086 C 
BRANCH  71  72
ATOM     72  NZ  LYS A   4       0.465  54.286  49.806  0.00  0.00    +0.380 N 
ATOM     73  HZ1 LYS A   4      -0.013  53.618  50.445  0.00  0.00    -0.089 HD
ATOM     74  HZ2 LYS A   4      -0.232  54.949  49.411  0.00  0.00    -0.089 HD
ATOM     75  HZ3 LYS A   4       0.923  53.761  49.034  0.00  0.00    -0.089 HD
ENDBRANCH  71  72
ENDBRANCH  70  71
ENDBRANCH  69  70
ENDBRANCH  68  69
ENDBRANCH   1  68
TORSDOF 32
REMARK  Name = ../refined-set-2016/3vjc/3vjc_pocket.pdb
REMARK  289 active torsions:
REMARK  status: ('A' for Active; 'I' for Inactive)
REMARK    1  A    between atoms: _1  and  _3
REMARK    2  A    between atoms: _3  and  _4
REMARK    3  A    between atoms: _3  and  _6
REMARK    4  A    between atoms: _6  and  _7
REMARK    5  A    between atoms: _10  and  _12
REMARK    6  A    between atoms: _12  and  _13
REMARK    7  A    between atoms: _12  and  _15
REMARK    8  A    between atoms: _15  and  _16
REMARK    9  A    between atoms: _21  and  _23
REMARK   10  A    between atoms: _23  and  _24
REMARK   11  A    between atoms: _23  and  _26
REMARK   12  A    between atoms: _26  and  _27
REMARK   13  A    between atoms: _27  and  _28
REMARK   14  A    between atoms: _33  and  _35
REMARK   15  A    between atoms: _35  and  _36
REMARK   16  A    between atoms: _35  and  _38
REMARK   17  A    between atoms: _38  and  _39
REMARK   18  A    between atoms: _42  and  _44
REMARK   19  A    between atoms: _44  and  _45
REMARK   20  A    between atoms: _44  and  _47
REMARK   21  A    between atoms: _47  and  _48
REMARK   22  A    between atoms: _50  and  _52
REMARK   23  A    between atoms: _52  and  _53
REMARK   24  A    between atoms: _52  and  _55
REMARK   25  A    between atoms: _55  and  _56
REMARK   26  A    between atoms: _56  and  _57
REMARK   27  A    between atoms: _57  and  _58
REMARK   28  A    between atoms: _67  and  _69
REMARK   29  A    between atoms: _69  and  _70
REMARK   30  A    between atoms: _69  and  _72
REMARK   31  A    between atoms: _72  and  _73
REMARK   32  A    between atoms: _75  and  _77
REMARK   33  A    between atoms: _77  and  _78
REMARK   34  A    between atoms: _77  and  _80
REMARK   35  A    between atoms: _80  and  _81
REMARK   36  A    between atoms: _87  and  _89
REMARK   37  A    between atoms: _89  and  _90
REMARK   38  A    between atoms: _93  and  _95
REMARK   39  A    between atoms: _95  and  _96
REMARK   40  A    between atoms: _99  and  _101
REMARK   41  A    between atoms: _101  and  _102
REMARK   42  A    between atoms: _101  and  _104
REMARK   43  A    between atoms: _107  and  _109
REMARK   44  A    between atoms: _109  and  _110
REMARK   45  A    between atoms: _109  and  _112
REMARK   46  A    between atoms: _112  and  _113
REMARK   47  A    between atoms: _116  and  _118
REMARK   48  A    between atoms: _118  and  _119
REMARK   49  A    between atoms: _118  and  _121
REMARK   50  A    between atoms: _121  and  _122
REMARK   51  A    between atoms: _125  and  _127
REMARK   52  A    between atoms: _127  and  _128
REMARK   53  A    between atoms: _131  and  _133
REMARK   54  A    between atoms: _133  and  _134
REMARK   55  A    between atoms: _133  and  _136
REMARK   56  A    between atoms: _139  and  _141
REMARK   57  A    between atoms: _141  and  _142
REMARK   58  A    between atoms: _141  and  _144
REMARK   59  A    between atoms: _146  and  _148
REMARK   60  A    between atoms: _148  and  _149
REMARK   61  A    between atoms: _148  and  _151
REMARK   62  A    between atoms: _151  and  _152
REMARK   63  A    between atoms: _155  and  _157
REMARK   64  A    between atoms: _157  and  _158
REMARK   65  A    between atoms: _157  and  _160
REMARK   66  A    between atoms: _160  and  _161
REMARK   67  A    between atoms: _167  and  _169
REMARK   68  A    between atoms: _169  and  _170
REMARK   69  A    between atoms: _169  and  _172
REMARK   70  A    between atoms: _172  and  _173
REMARK   71  A    between atoms: _178  and  _179
REMARK   72  A    between atoms: _181  and  _183
REMARK   73  A    between atoms: _183  and  _184
REMARK   74  A    between atoms: _183  and  _186
REMARK   75  A    between atoms: _186  and  _187
REMARK   76  A    between atoms: _190  and  _192
REMARK   77  A    between atoms: _192  and  _193
REMARK   78  A    between atoms: _192  and  _195
REMARK   79  A    between atoms: _198  and  _200
REMARK   80  A    between atoms: _200  and  _201
REMARK   81  A    between atoms: _200  and  _203
REMARK   82  A    between atoms: _203  and  _204
REMARK   83  A    between atoms: _207  and  _209
REMARK   84  A    between atoms: _209  and  _210
REMARK   85  A    between atoms: _209  and  _212
REMARK   86  A    between atoms: _212  and  _213
REMARK   87  A    between atoms: _213  and  _214
REMARK   88  A    between atoms: _214  and  _215
REMARK   89  A    between atoms: _224  and  _226
REMARK   90  A    between atoms: _226  and  _227
REMARK   91  A    between atoms: _230  and  _232
REMARK   92  A    between atoms: _232  and  _233
REMARK   93  A    between atoms: _232  and  _235
REMARK   94  A    between atoms: _235  and  _236
REMARK   95  A    between atoms: _239  and  _241
REMARK   96  A    between atoms: _241  and  _242
REMARK   97  A    between atoms: _241  and  _244
REMARK   98  A    between atoms: _244  and  _245
REMARK   99  A    between atoms: _248  and  _250
REMARK  100  A    between atoms: _250  and  _251
REMARK  101  A    between atoms: _250  and  _253
REMARK  102  A    between atoms: _253  and  _254
REMARK  103  A    between atoms: _257  and  _259
REMARK  104  A    between atoms: _259  and  _260
REMARK  105  A    between atoms: _259  and  _262
REMARK  106  A    between atoms: _262  and  _263
REMARK  107  A    between atoms: _263  and  _264
REMARK  108  A    between atoms: _267  and  _269
REMARK  109  A    between atoms: _269  and  _270
REMARK  110  A    between atoms: _269  and  _272
REMARK  111  A    between atoms: _272  and  _273
REMARK  112  A    between atoms: _276  and  _278
REMARK  113  A    between atoms: _278  and  _279
REMARK  114  A    between atoms: _278  and  _281
REMARK  115  A    between atoms: _281  and  _282
REMARK  116  A    between atoms: _282  and  _283
REMARK  117  A    between atoms: _283  and  _284
REMARK  118  A    between atoms: _284  and  _285
REMARK  119  A    between atoms: _289  and  _291
REMARK  120  A    between atoms: _291  and  _292
REMARK  121  A    between atoms: _291  and  _294
REMARK  122  A    between atoms: _294  and  _295
REMARK  123  A    between atoms: _298  and  _300
REMARK  124  A    between atoms: _300  and  _301
REMARK  125  A    between atoms: _300  and  _303
REMARK  126  A    between atoms: _303  and  _304
REMARK  127  A    between atoms: _307  and  _309
REMARK  128  A    between atoms: _309  and  _310
REMARK  129  A    between atoms: _309  and  _312
REMARK  130  A    between atoms: _312  and  _313
REMARK  131  A    between atoms: _313  and  _314
REMARK  132  A    between atoms: _316  and  _318
REMARK  133  A    between atoms: _318  and  _319
REMARK  134  A    between atoms: _318  and  _321
REMARK  135  A    between atoms: _321  and  _322
REMARK  136  A    between atoms: _322  and  _323
REMARK  137  A    between atoms: _325  and  _327
REMARK  138  A    between atoms: _327  and  _328
REMARK  139  A    between atoms: _327  and  _330
REMARK  140  A    between atoms: _330  and  _331
REMARK  141  A    between atoms: _336  and  _337
REMARK  142  A    between atoms: _339  and  _341
REMARK  143  A    between atoms: _341  and  _342
REMARK  144  A    between atoms: _341  and  _344
REMARK  145  A    between atoms: _344  and  _345
REMARK  146  A    between atoms: _350  and  _351
REMARK  147  A    between atoms: _353  and  _355
REMARK  148  A    between atoms: _355  and  _356
REMARK  149  A    between atoms: _355  and  _358
REMARK  150  A    between atoms: _361  and  _363
REMARK  151  A    between atoms: _363  and  _364
REMARK  152  A    between atoms: _367  and  _369
REMARK  153  A    between atoms: _369  and  _370
REMARK  154  A    between atoms: _372  and  _374
REMARK  155  A    between atoms: _374  and  _375
REMARK  156  A    between atoms: _374  and  _377
REMARK  157  A    between atoms: _377  and  _378
REMARK  158  A    between atoms: _381  and  _383
REMARK  159  A    between atoms: _383  and  _384
REMARK  160  A    between atoms: _383  and  _386
REMARK  161  A    between atoms: _389  and  _391
REMARK  162  A    between atoms: _391  and  _392
REMARK  163  A    between atoms: _394  and  _396
REMARK  164  A    between atoms: _396  and  _397
REMARK  165  A    between atoms: _399  and  _401
REMARK  166  A    between atoms: _401  and  _402
REMARK  167  A    between atoms: _401  and  _404
REMARK  168  A    between atoms: _404  and  _405
REMARK  169  A    between atoms: _408  and  _410
REMARK  170  A    between atoms: _410  and  _411
REMARK  171  A    between atoms: _410  and  _413
REMARK  172  A    between atoms: _413  and  _414
REMARK  173  A    between atoms: _417  and  _419
REMARK  174  A    between atoms: _419  and  _420
REMARK  175  A    between atoms: _419  and  _422
REMARK  176  A    between atoms: _422  and  _423
REMARK  177  A    between atoms: _429  and  _431
REMARK  178  A    between atoms: _431  and  _432
REMARK  179  A    between atoms: _431  and  _434
REMARK  180  A    between atoms: _434  and  _435
REMARK  181  A    between atoms: _435  and  _436
REMARK  182  A    between atoms: _438  and  _440
REMARK  183  A    between atoms: _440  and  _441
REMARK  184  A    between atoms: _440  and  _443
REMARK  185  A    between atoms: _443  and  _444
REMARK  186  A    between atoms: _450  and  _452
REMARK  187  A    between atoms: _452  and  _453
REMARK  188  A    between atoms: _452  and  _455
REMARK  189  A    between atoms: _455  and  _456
REMARK  190  A    between atoms: _459  and  _461
REMARK  191  A    between atoms: _461  and  _462
REMARK  192  A    between atoms: _461  and  _464
REMARK  193  A    between atoms: _464  and  _465
REMARK  194  A    between atoms: _465  and  _466
REMARK  195  A    between atoms: _471  and  _473
REMARK  196  A    between atoms: _473  and  _474
REMARK  197  A    between atoms: _473  and  _476
REMARK  198  A    between atoms: _476  and  _477
REMARK  199  A    between atoms: _477  and  _478
REMARK  200  A    between atoms: _478  and  _479
REMARK  201  A    between atoms: _479  and  _480
REMARK  202  A    between atoms: _484  and  _486
REMARK  203  A    between atoms: _486  and  _487
REMARK  204  A    between atoms: _486  and  _489
REMARK  205  A    between atoms: _489  and  _490
REMARK  206  A    between atoms: _493  and  _495
REMARK  207  A    between atoms: _495  and  _496
REMARK  208  A    between atoms: _495  and  _498
REMARK  209  A    between atoms: _498  and  _499
REMARK  210  A    between atoms: _504  and  _506
REMARK  211  A    between atoms: _506  and  _507
REMARK  212  A    between atoms: _506  and  _509
REMARK  213  A    between atoms: _509  and  _510
REMARK  214  A    between atoms: _513  and  _515
REMARK  215  A    between atoms: _515  and  _516
REMARK  216  A    between atoms: _515  and  _518
REMARK  217  A    between atoms: _518  and  _519
REMARK  218  A    between atoms: _519  and  _520
REMARK  219  A    between atoms: _520  and  _521
REMARK  220  A    between atoms: _530  and  _532
REMARK  221  A    between atoms: _532  and  _533
REMARK  222  A    between atoms: _532  and  _535
REMARK  223  A    between atoms: _535  and  _536
REMARK  224  A    between atoms: _539  and  _541
REMARK  225  A    between atoms: _541  and  _542
REMARK  226  A    between atoms: _541  and  _544
REMARK  227  A    between atoms: _544  and  _545
REMARK  228  A    between atoms: _545  and  _546
REMARK  229  A    between atoms: _549  and  _551
REMARK  230  A    between atoms: _551  and  _552
REMARK  231  A    between atoms: _551  and  _554
REMARK  232  A    between atoms: _554  and  _555
REMARK  233  A    between atoms: _561  and  _563
REMARK  234  A    between atoms: _563  and  _564
REMARK  235  A    between atoms: _563  and  _566
REMARK  236  A    between atoms: _566  and  _567
REMARK  237  A    between atoms: _571  and  _572
REMARK  238  A    between atoms: _577  and  _579
REMARK  239  A    between atoms: _579  and  _580
REMARK  240  A    between atoms: _579  and  _582
REMARK  241  A    between atoms: _582  and  _583
REMARK  242  A    between atoms: _583  and  _584
REMARK  243  A    between atoms: _589  and  _591
REMARK  244  A    between atoms: _591  and  _592
REMARK  245  A    between atoms: _591  and  _594
REMARK  246  A    between atoms: _597  and  _599
REMARK  247  A    between atoms: _599  and  _600
REMARK  248  A    between atoms: _599  and  _602
REMARK  249  A    between atoms: _602  and  _603
REMARK  250  A    between atoms: _603  and  _604
REMARK  251  A    between atoms: _606  and  _608
REMARK  252  A    between atoms: _608  and  _609
REMARK  253  A    between atoms: _612  and  _614
REMARK  254  A    between atoms: _614  and  _615
REMARK  255  A    between atoms: _614  and  _617
REMARK  256  A    between atoms: _617  and  _618
REMARK  257  A    between atoms: _621  and  _623
REMARK  258  A    between atoms: _623  and  _624
REMARK  259  A    between atoms: _627  and  _629
REMARK  260  A    between atoms: _629  and  _630
REMARK  261  A    between atoms: _629  and  _632
REMARK  262  A    between atoms: _632  and  _633
REMARK  263  A    between atoms: _636  and  _638
REMARK  264  A    between atoms: _638  and  _639
REMARK  265  A    between atoms: _638  and  _641
REMARK  266  A    between atoms: _641  and  _642
REMARK  267  A    between atoms: _645  and  _647
REMARK  268  A    between atoms: _647  and  _648
REMARK  269  A    between atoms: _647  and  _650
REMARK  270  A    between atoms: _650  and  _651
REMARK  271  A    between atoms: _654  and  _656
REMARK  272  A    between atoms: _656  and  _657
REMARK  273  A    between atoms: _656  and  _659
REMARK  274  A    between atoms: _659  and  _660
REMARK  275  A    between atoms: _660  and  _661
REMARK  276  A    between atoms: _666  and  _668
REMARK  277  A    between atoms: _668  and  _669
REMARK  278  A    between atoms: _672  and  _674
REMARK  279  A    between atoms: _674  and  _675
REMARK  280  A    between atoms: _674  and  _677
REMARK  281  A    between atoms: _680  and  _682
REMARK  282  A    between atoms: _682  and  _683
REMARK  283  A    between atoms: _682  and  _685
REMARK  284  A    between atoms: _685  and  _686
REMARK  285  A    between atoms: _689  and  _691
REMARK  286  A    between atoms: _691  and  _692
REMARK  287  A    between atoms: _691  and  _694
REMARK  288  A    between atoms: _694  and  _695
REMARK  289  A    between atoms: _695  and  _696
REMARK                            x       y       z     vdW  Elec       q    Type
REMARK                         _______ _______ _______ _____ _____    ______ ____
ROOT
ATOM      1  CA  ARG A   1       9.685  52.592  60.479  0.00  0.00    +0.145 C 
ENDROOT
BRANCH   1   2
ATOM      2  C   ARG A   1       9.926  53.646  61.555  0.00  0.00    +0.238 C 
ATOM      3  O   ARG A   1      10.313  53.303  62.678  0.00  0.00    -0.274 OA
ATOM      4  N   ASP A   2       9.680  54.913  61.218  0.00  0.00    -0.298 N 
ATOM      5  H   ASP A   2       9.180  55.111  60.328  0.00  0.00    +0.150 HD
BRANCH   4   6
ATOM      6  CA  ASP A   2      10.093  56.030  62.063  0.00  0.00    +0.148 C 
BRANCH   6   7
ATOM      7  C   ASP A   2       8.990  56.551  62.971  0.00  0.00    +0.227 C 
ATOM      8  O   ASP A   2       9.094  57.672  63.467  0.00  0.00    -0.286 OA
ENDBRANCH   6   7
BRANCH   6   9
ATOM      9  CB  ASP A   2      10.659  57.175  61.210  0.00  0.00    +0.142 C 
BRANCH   9  10
ATOM     10  CG  ASP A   2      11.955  56.799  60.499  0.00  0.00    +0.367 C 
ATOM     11  OD2 ASP A   2      12.643  55.834  60.900  0.00  0.00    -0.246 OA
ATOM     12  OD1 ASP A   2      12.300  57.486  59.516  0.00  0.00    -0.246 OA
ENDBRANCH   9  10
ENDBRANCH   6   9
ENDBRANCH   4   6
ENDBRANCH   1   2
BRANCH   1  13
ATOM     13  N   ARG A   1       8.525  52.917  59.641  0.00  0.00    -0.238 NA
ATOM     14  H   ARG A   1       8.680  53.059  58.622  0.00  0.00    +0.142 HD
ENDBRANCH   1  13
BRANCH   1  15
ATOM     15  CB  ARG A   1      10.950  52.454  59.624  0.00  0.00    +0.030 C 
BRANCH  15  16
ATOM     16  CG  ARG A   1      12.205  52.020  60.408  0.00  0.00    +0.045 C 
BRANCH  16  17
ATOM     17  CD  ARG A   1      13.525  52.275  59.664  0.00  0.00    +0.174 C 
BRANCH  17  18
ATOM     18  NE  ARG A   1      13.693  53.687  59.338  0.00  0.00    -0.265 N 
ATOM     19  HE  ARG A   1      13.228  54.375  59.964  0.00  0.00    +0.259 HD
ATOM     20  CZ  ARG A   1      14.386  54.176  58.314  0.00  0.00    +0.342 C 
ATOM     21  NH2 ARG A   1      14.437  55.489  58.131  0.00  0.00    -0.292 N 
ATOM     22 HH21 ARG A   1      13.938  56.125  58.785  0.00  0.00    +0.255 HD
ATOM     23 HH22 ARG A   1      14.976  55.882  57.333  0.00  0.00    +0.255 HD
ATOM     24  NH1 ARG A   1      15.021  53.378  57.468  0.00  0.00    -0.292 N 
ATOM     25 HH11 ARG A   1      14.983  52.347  57.598  0.00  0.00    +0.255 HD
ATOM     26 HH12 ARG A   1      15.557  53.783  56.674  0.00  0.00    +0.255 HD
ENDBRANCH  17  18
ENDBRANCH  16  17
ENDBRANCH  15  16
ENDBRANCH   1  15
TORSDOF 10
REMARK  Name = ../refined-set-2016/3vjc/3vjc_pocket.pdb
REMARK  289 active torsions:
REMARK  status: ('A' for Active; 'I' for Inactive)
REMARK    1  A    between atoms: _1  and  _3
REMARK    2  A    between atoms: _3  and  _4
REMARK    3  A    between atoms: _3  and  _6
REMARK    4  A    between atoms: _6  and  _7
REMARK    5  A    between atoms: _10  and  _12
REMARK    6  A    between atoms: _12  and  _13
REMARK    7  A    between atoms: _12  and  _15
REMARK    8  A    between atoms: _15  and  _16
REMARK    9  A    between atoms: _21  and  _23
REMARK   10  A    between atoms: _23  and  _24
REMARK   11  A    between atoms: _23  and  _26
REMARK   12  A    between atoms: _26  and  _27
REMARK   13  A    between atoms: _27  and  _28
REMARK   14  A    between atoms: _33  and  _35
REMARK   15  A    between atoms: _35  and  _36
REMARK   16  A    between atoms: _35  and  _38
REMARK   17  A    between atoms: _38  and  _39
REMARK   18  A    between atoms: _42  and  _44
REMARK   19  A    between atoms: _44  and  _45
REMARK   20  A    between atoms: _44  and  _47
REMARK   21  A    between atoms: _47  and  _48
REMARK   22  A    between atoms: _50  and  _52
REMARK   23  A    between atoms: _52  and  _53
REMARK   24  A    between atoms: _52  and  _55
REMARK   25  A    between atoms: _55  and  _56
REMARK   26  A    between atoms: _56  and  _57
REMARK   27  A    between atoms: _57  and  _58
REMARK   28  A    between atoms: _67  and  _69
REMARK   29  A    between atoms: _69  and  _70
REMARK   30  A    between atoms: _69  and  _72
REMARK   31  A    between atoms: _72  and  _73
REMARK   32  A    between atoms: _75  and  _77
REMARK   33  A    between atoms: _77  and  _78
REMARK   34  A    between atoms: _77  and  _80
REMARK   35  A    between atoms: _80  and  _81
REMARK   36  A    between atoms: _87  and  _89
REMARK   37  A    between atoms: _89  and  _90
REMARK   38  A    between atoms: _93  and  _95
REMARK   39  A    between atoms: _95  and  _96
REMARK   40  A    between atoms: _99  and  _101
REMARK   41  A    between atoms: _101  and  _102
REMARK   42  A    between atoms: _101  and  _104
REMARK   43  A    between atoms: _107  and  _109
REMARK   44  A    between atoms: _109  and  _110
REMARK   45  A    between atoms: _109  and  _112
REMARK   46  A    between atoms: _112  and  _113
REMARK   47  A    between atoms: _116  and  _118
REMARK   48  A    between atoms: _118  and  _119
REMARK   49  A    between atoms: _118  and  _121
REMARK   50  A    between atoms: _121  and  _122
REMARK   51  A    between atoms: _125  and  _127
REMARK   52  A    between atoms: _127  and  _128
REMARK   53  A    between atoms: _131  and  _133
REMARK   54  A    between atoms: _133  and  _134
REMARK   55  A    between atoms: _133  and  _136
REMARK   56  A    between atoms: _139  and  _141
REMARK   57  A    between atoms: _141  and  _142
REMARK   58  A    between atoms: _141  and  _144
REMARK   59  A    between atoms: _146  and  _148
REMARK   60  A    between atoms: _148  and  _149
REMARK   61  A    between atoms: _148  and  _151
REMARK   62  A    between atoms: _151  and  _152
REMARK   63  A    between atoms: _155  and  _157
REMARK   64  A    between atoms: _157  and  _158
REMARK   65  A    between atoms: _157  and  _160
REMARK   66  A    between atoms: _160  and  _161
REMARK   67  A    between atoms: _167  and  _169
REMARK   68  A    between atoms: _169  and  _170
REMARK   69  A    between atoms: _169  and  _172
REMARK   70  A    between atoms: _172  and  _173
REMARK   71  A    between atoms: _178  and  _179
REMARK   72  A    between atoms: _181  and  _183
REMARK   73  A    between atoms: _183  and  _184
REMARK   74  A    between atoms: _183  and  _186
REMARK   75  A    between atoms: _186  and  _187
REMARK   76  A    between atoms: _190  and  _192
REMARK   77  A    between atoms: _192  and  _193
REMARK   78  A    between atoms: _192  and  _195
REMARK   79  A    between atoms: _198  and  _200
REMARK   80  A    between atoms: _200  and  _201
REMARK   81  A    between atoms: _200  and  _203
REMARK   82  A    between atoms: _203  and  _204
REMARK   83  A    between atoms: _207  and  _209
REMARK   84  A    between atoms: _209  and  _210
REMARK   85  A    between atoms: _209  and  _212
REMARK   86  A    between atoms: _212  and  _213
REMARK   87  A    between atoms: _213  and  _214
REMARK   88  A    between atoms: _214  and  _215
REMARK   89  A    between atoms: _224  and  _226
REMARK   90  A    between atoms: _226  and  _227
REMARK   91  A    between atoms: _230  and  _232
REMARK   92  A    between atoms: _232  and  _233
REMARK   93  A    between atoms: _232  and  _235
REMARK   94  A    between atoms: _235  and  _236
REMARK   95  A    between atoms: _239  and  _241
REMARK   96  A    between atoms: _241  and  _242
REMARK   97  A    between atoms: _241  and  _244
REMARK   98  A    between atoms: _244  and  _245
REMARK   99  A    between atoms: _248  and  _250
REMARK  100  A    between atoms: _250  and  _251
REMARK  101  A    between atoms: _250  and  _253
REMARK  102  A    between atoms: _253  and  _254
REMARK  103  A    between atoms: _257  and  _259
REMARK  104  A    between atoms: _259  and  _260
REMARK  105  A    between atoms: _259  and  _262
REMARK  106  A    between atoms: _262  and  _263
REMARK  107  A    between atoms: _263  and  _264
REMARK  108  A    between atoms: _267  and  _269
REMARK  109  A    between atoms: _269  and  _270
REMARK  110  A    between atoms: _269  and  _272
REMARK  111  A    between atoms: _272  and  _273
REMARK  112  A    between atoms: _276  and  _278
REMARK  113  A    between atoms: _278  and  _279
REMARK  114  A    between atoms: _278  and  _281
REMARK  115  A    between atoms: _281  and  _282
REMARK  116  A    between atoms: _282  and  _283
REMARK  117  A    between atoms: _283  and  _284
REMARK  118  A    between atoms: _284  and  _285
REMARK  119  A    between atoms: _289  and  _291
REMARK  120  A    between atoms: _291  and  _292
REMARK  121  A    between atoms: _291  and  _294
REMARK  122  A    between atoms: _294  and  _295
REMARK  123  A    between atoms: _298  and  _300
REMARK  124  A    between atoms: _300  and  _301
REMARK  125  A    between atoms: _300  and  _303
REMARK  126  A    between atoms: _303  and  _304
REMARK  127  A    between atoms: _307  and  _309
REMARK  128  A    between atoms: _309  and  _310
REMARK  129  A    between atoms: _309  and  _312
REMARK  130  A    between atoms: _312  and  _313
REMARK  131  A    between atoms: _313  and  _314
REMARK  132  A    between atoms: _316  and  _318
REMARK  133  A    between atoms: _318  and  _319
REMARK  134  A    between atoms: _318  and  _321
REMARK  135  A    between atoms: _321  and  _322
REMARK  136  A    between atoms: _322  and  _323
REMARK  137  A    between atoms: _325  and  _327
REMARK  138  A    between atoms: _327  and  _328
REMARK  139  A    between atoms: _327  and  _330
REMARK  140  A    between atoms: _330  and  _331
REMARK  141  A    between atoms: _336  and  _337
REMARK  142  A    between atoms: _339  and  _341
REMARK  143  A    between atoms: _341  and  _342
REMARK  144  A    between atoms: _341  and  _344
REMARK  145  A    between atoms: _344  and  _345
REMARK  146  A    between atoms: _350  and  _351
REMARK  147  A    between atoms: _353  and  _355
REMARK  148  A    between atoms: _355  and  _356
REMARK  149  A    between atoms: _355  and  _358
REMARK  150  A    between atoms: _361  and  _363
REMARK  151  A    between atoms: _363  and  _364
REMARK  152  A    between atoms: _367  and  _369
REMARK  153  A    between atoms: _369  and  _370
REMARK  154  A    between atoms: _372  and  _374
REMARK  155  A    between atoms: _374  and  _375
REMARK  156  A    between atoms: _374  and  _377
REMARK  157  A    between atoms: _377  and  _378
REMARK  158  A    between atoms: _381  and  _383
REMARK  159  A    between atoms: _383  and  _384
REMARK  160  A    between atoms: _383  and  _386
REMARK  161  A    between atoms: _389  and  _391
REMARK  162  A    between atoms: _391  and  _392
REMARK  163  A    between atoms: _394  and  _396
REMARK  164  A    between atoms: _396  and  _397
REMARK  165  A    between atoms: _399  and  _401
REMARK  166  A    between atoms: _401  and  _402
REMARK  167  A    between atoms: _401  and  _404
REMARK  168  A    between atoms: _404  and  _405
REMARK  169  A    between atoms: _408  and  _410
REMARK  170  A    between atoms: _410  and  _411
REMARK  171  A    between atoms: _410  and  _413
REMARK  172  A    between atoms: _413  and  _414
REMARK  173  A    between atoms: _417  and  _419
REMARK  174  A    between atoms: _419  and  _420
REMARK  175  A    between atoms: _419  and  _422
REMARK  176  A    between atoms: _422  and  _423
REMARK  177  A    between atoms: _429  and  _431
REMARK  178  A    between atoms: _431  and  _432
REMARK  179  A    between atoms: _431  and  _434
REMARK  180  A    between atoms: _434  and  _435
REMARK  181  A    between atoms: _435  and  _436
REMARK  182  A    between atoms: _438  and  _440
REMARK  183  A    between atoms: _440  and  _441
REMARK  184  A    between atoms: _440  and  _443
REMARK  185  A    between atoms: _443  and  _444
REMARK  186  A    between atoms: _450  and  _452
REMARK  187  A    between atoms: _452  and  _453
REMARK  188  A    between atoms: _452  and  _455
REMARK  189  A    between atoms: _455  and  _456
REMARK  190  A    between atoms: _459  and  _461
REMARK  191  A    between atoms: _461  and  _462
REMARK  192  A    between atoms: _461  and  _464
REMARK  193  A    between atoms: _464  and  _465
REMARK  194  A    between atoms: _465  and  _466
REMARK  195  A    between atoms: _471  and  _473
REMARK  196  A    between atoms: _473  and  _474
REMARK  197  A    between atoms: _473  and  _476
REMARK  198  A    between atoms: _476  and  _477
REMARK  199  A    between atoms: _477  and  _478
REMARK  200  A    between atoms: _478  and  _479
REMARK  201  A    between atoms: _479  and  _480
REMARK  202  A    between atoms: _484  and  _486
REMARK  203  A    between atoms: _486  and  _487
REMARK  204  A    between atoms: _486  and  _489
REMARK  205  A    between atoms: _489  and  _490
REMARK  206  A    between atoms: _493  and  _495
REMARK  207  A    between atoms: _495  and  _496
REMARK  208  A    between atoms: _495  and  _498
REMARK  209  A    between atoms: _498  and  _499
REMARK  210  A    between atoms: _504  and  _506
REMARK  211  A    between atoms: _506  and  _507
REMARK  212  A    between atoms: _506  and  _509
REMARK  213  A    between atoms: _509  and  _510
REMARK  214  A    between atoms: _513  and  _515
REMARK  215  A    between atoms: _515  and  _516
REMARK  216  A    between atoms: _515  and  _518
REMARK  217  A    between atoms: _518  and  _519
REMARK  218  A    between atoms: _519  and  _520
REMARK  219  A    between atoms: _520  and  _521
REMARK  220  A    between atoms: _530  and  _532
REMARK  221  A    between atoms: _532  and  _533
REMARK  222  A    between atoms: _532  and  _535
REMARK  223  A    between atoms: _535  and  _536
REMARK  224  A    between atoms: _539  and  _541
REMARK  225  A    between atoms: _541  and  _542
REMARK  226  A    between atoms: _541  and  _544
REMARK  227  A    between atoms: _544  and  _545
REMARK  228  A    between atoms: _545  and  _546
REMARK  229  A    between atoms: _549  and  _551
REMARK  230  A    between atoms: _551  and  _552
REMARK  231  A    between atoms: _551  and  _554
REMARK  232  A    between atoms: _554  and  _555
REMARK  233  A    between atoms: _561  and  _563
REMARK  234  A    between atoms: _563  and  _564
REMARK  235  A    between atoms: _563  and  _566
REMARK  236  A    between atoms: _566  and  _567
REMARK  237  A    between atoms: _571  and  _572
REMARK  238  A    between atoms: _577  and  _579
REMARK  239  A    between atoms: _579  and  _580
REMARK  240  A    between atoms: _579  and  _582
REMARK  241  A    between atoms: _582  and  _583
REMARK  242  A    between atoms: _583  and  _584
REMARK  243  A    between atoms: _589  and  _591
REMARK  244  A    between atoms: _591  and  _592
REMARK  245  A    between atoms: _591  and  _594
REMARK  246  A    between atoms: _597  and  _599
REMARK  247  A    between atoms: _599  and  _600
REMARK  248  A    between atoms: _599  and  _602
REMARK  249  A    between atoms: _602  and  _603
REMARK  250  A    between atoms: _603  and  _604
REMARK  251  A    between atoms: _606  and  _608
REMARK  252  A    between atoms: _608  and  _609
REMARK  253  A    between atoms: _612  and  _614
REMARK  254  A    between atoms: _614  and  _615
REMARK  255  A    between atoms: _614  and  _617
REMARK  256  A    between atoms: _617  and  _618
REMARK  257  A    between atoms: _621  and  _623
REMARK  258  A    between atoms: _623  and  _624
REMARK  259  A    between atoms: _627  and  _629
REMARK  260  A    between atoms: _629  and  _630
REMARK  261  A    between atoms: _629  and  _632
REMARK  262  A    between atoms: _632  and  _633
REMARK  263  A    between atoms: _636  and  _638
REMARK  264  A    between atoms: _638  and  _639
REMARK  265  A    between atoms: _638  and  _641
REMARK  266  A    between atoms: _641  and  _642
REMARK  267  A    between atoms: _645  and  _647
REMARK  268  A    between atoms: _647  and  _648
REMARK  269  A    between atoms: _647  and  _650
REMARK  270  A    between atoms: _650  and  _651
REMARK  271  A    between atoms: _654  and  _656
REMARK  272  A    between atoms: _656  and  _657
REMARK  273  A    between atoms: _656  and  _659
REMARK  274  A    between atoms: _659  and  _660
REMARK  275  A    between atoms: _660  and  _661
REMARK  276  A    between atoms: _666  and  _668
REMARK  277  A    between atoms: _668  and  _669
REMARK  278  A    between atoms: _672  and  _674
REMARK  279  A    between atoms: _674  and  _675
REMARK  280  A    between atoms: _674  and  _677
REMARK  281  A    between atoms: _680  and  _682
REMARK  282  A    between atoms: _682  and  _683
REMARK  283  A    between atoms: _682  and  _685
REMARK  284  A    between atoms: _685  and  _686
REMARK  285  A    between atoms: _689  and  _691
REMARK  286  A    between atoms: _691  and  _692
REMARK  287  A    between atoms: _691  and  _694
REMARK  288  A    between atoms: _694  and  _695
REMARK  289  A    between atoms: _695  and  _696
REMARK                            x       y       z     vdW  Elec       q    Type
REMARK                         _______ _______ _______ _____ _____    ______ ____
ROOT
ATOM      1  CA  GLU A   1      11.402  58.987  66.264  0.00  0.00    +0.134 C 
ENDROOT
BRANCH   1   2
ATOM      2  N   GLU A   1      10.563  57.798  66.460  0.00  0.00    -0.239 NA
ATOM      3  H   GLU A   1      10.743  56.950  65.886  0.00  0.00    +0.142 HD
ENDBRANCH   1   2
BRANCH   1   4
ATOM      4  C   GLU A   1      10.539  60.210  65.946  0.00  0.00    +0.224 C 
ATOM      5  O   GLU A   1      10.732  61.299  66.506  0.00  0.00    -0.287 OA
ENDBRANCH   1   4
BRANCH   1   6
ATOM      6  CB  GLU A   1      12.416  58.737  65.144  0.00  0.00    +0.037 C 
BRANCH   6   7
ATOM      7  CG  GLU A   1      13.561  59.741  65.094  0.00  0.00    +0.116 C 
BRANCH   7   8
ATOM      8  CD  GLU A   1      14.453  59.560  63.877  0.00  0.00    +0.365 C 
ATOM      9  OE2 GLU A   1      15.033  60.573  63.435  0.00  0.00    -0.246 OA
ATOM     10  OE1 GLU A   1      14.574  58.431  63.352  0.00  0.00    -0.246 OA
ENDBRANCH   7   8
ENDBRANCH   6   7
ENDBRANCH   1   6
TORSDOF 5
REMARK  Name = ../refined-set-2016/3vjc/3vjc_pocket.pdb
REMARK  289 active torsions:
REMARK  status: ('A' for Active; 'I' for Inactive)
REMARK    1  A    between atoms: _1  and  _3
REMARK    2  A    between atoms: _3  and  _4
REMARK    3  A    between atoms: _3  and  _6
REMARK    4  A    between atoms: _6  and  _7
REMARK    5  A    between atoms: _10  and  _12
REMARK    6  A    between atoms: _12  and  _13
REMARK    7  A    between atoms: _12  and  _15
REMARK    8  A    between atoms: _15  and  _16
REMARK    9  A    between atoms: _21  and  _23
REMARK   10  A    between atoms: _23  and  _24
REMARK   11  A    between atoms: _23  and  _26
REMARK   12  A    between atoms: _26  and  _27
REMARK   13  A    between atoms: _27  and  _28
REMARK   14  A    between atoms: _33  and  _35
REMARK   15  A    between atoms: _35  and  _36
REMARK   16  A    between atoms: _35  and  _38
REMARK   17  A    between atoms: _38  and  _39
REMARK   18  A    between atoms: _42  and  _44
REMARK   19  A    between atoms: _44  and  _45
REMARK   20  A    between atoms: _44  and  _47
REMARK   21  A    between atoms: _47  and  _48
REMARK   22  A    between atoms: _50  and  _52
REMARK   23  A    between atoms: _52  and  _53
REMARK   24  A    between atoms: _52  and  _55
REMARK   25  A    between atoms: _55  and  _56
REMARK   26  A    between atoms: _56  and  _57
REMARK   27  A    between atoms: _57  and  _58
REMARK   28  A    between atoms: _67  and  _69
REMARK   29  A    between atoms: _69  and  _70
REMARK   30  A    between atoms: _69  and  _72
REMARK   31  A    between atoms: _72  and  _73
REMARK   32  A    between atoms: _75  and  _77
REMARK   33  A    between atoms: _77  and  _78
REMARK   34  A    between atoms: _77  and  _80
REMARK   35  A    between atoms: _80  and  _81
REMARK   36  A    between atoms: _87  and  _89
REMARK   37  A    between atoms: _89  and  _90
REMARK   38  A    between atoms: _93  and  _95
REMARK   39  A    between atoms: _95  and  _96
REMARK   40  A    between atoms: _99  and  _101
REMARK   41  A    between atoms: _101  and  _102
REMARK   42  A    between atoms: _101  and  _104
REMARK   43  A    between atoms: _107  and  _109
REMARK   44  A    between atoms: _109  and  _110
REMARK   45  A    between atoms: _109  and  _112
REMARK   46  A    between atoms: _112  and  _113
REMARK   47  A    between atoms: _116  and  _118
REMARK   48  A    between atoms: _118  and  _119
REMARK   49  A    between atoms: _118  and  _121
REMARK   50  A    between atoms: _121  and  _122
REMARK   51  A    between atoms: _125  and  _127
REMARK   52  A    between atoms: _127  and  _128
REMARK   53  A    between atoms: _131  and  _133
REMARK   54  A    between atoms: _133  and  _134
REMARK   55  A    between atoms: _133  and  _136
REMARK   56  A    between atoms: _139  and  _141
REMARK   57  A    between atoms: _141  and  _142
REMARK   58  A    between atoms: _141  and  _144
REMARK   59  A    between atoms: _146  and  _148
REMARK   60  A    between atoms: _148  and  _149
REMARK   61  A    between atoms: _148  and  _151
REMARK   62  A    between atoms: _151  and  _152
REMARK   63  A    between atoms: _155  and  _157
REMARK   64  A    between atoms: _157  and  _158
REMARK   65  A    between atoms: _157  and  _160
REMARK   66  A    between atoms: _160  and  _161
REMARK   67  A    between atoms: _167  and  _169
REMARK   68  A    between atoms: _169  and  _170
REMARK   69  A    between atoms: _169  and  _172
REMARK   70  A    between atoms: _172  and  _173
REMARK   71  A    between atoms: _178  and  _179
REMARK   72  A    between atoms: _181  and  _183
REMARK   73  A    between atoms: _183  and  _184
REMARK   74  A    between atoms: _183  and  _186
REMARK   75  A    between atoms: _186  and  _187
REMARK   76  A    between atoms: _190  and  _192
REMARK   77  A    between atoms: _192  and  _193
REMARK   78  A    between atoms: _192  and  _195
REMARK   79  A    between atoms: _198  and  _200
REMARK   80  A    between atoms: _200  and  _201
REMARK   81  A    between atoms: _200  and  _203
REMARK   82  A    between atoms: _203  and  _204
REMARK   83  A    between atoms: _207  and  _209
REMARK   84  A    between atoms: _209  and  _210
REMARK   85  A    between atoms: _209  and  _212
REMARK   86  A    between atoms: _212  and  _213
REMARK   87  A    between atoms: _213  and  _214
REMARK   88  A    between atoms: _214  and  _215
REMARK   89  A    between atoms: _224  and  _226
REMARK   90  A    between atoms: _226  and  _227
REMARK   91  A    between atoms: _230  and  _232
REMARK   92  A    between atoms: _232  and  _233
REMARK   93  A    between atoms: _232  and  _235
REMARK   94  A    between atoms: _235  and  _236
REMARK   95  A    between atoms: _239  and  _241
REMARK   96  A    between atoms: _241  and  _242
REMARK   97  A    between atoms: _241  and  _244
REMARK   98  A    between atoms: _244  and  _245
REMARK   99  A    between atoms: _248  and  _250
REMARK  100  A    between atoms: _250  and  _251
REMARK  101  A    between atoms: _250  and  _253
REMARK  102  A    between atoms: _253  and  _254
REMARK  103  A    between atoms: _257  and  _259
REMARK  104  A    between atoms: _259  and  _260
REMARK  105  A    between atoms: _259  and  _262
REMARK  106  A    between atoms: _262  and  _263
REMARK  107  A    between atoms: _263  and  _264
REMARK  108  A    between atoms: _267  and  _269
REMARK  109  A    between atoms: _269  and  _270
REMARK  110  A    between atoms: _269  and  _272
REMARK  111  A    between atoms: _272  and  _273
REMARK  112  A    between atoms: _276  and  _278
REMARK  113  A    between atoms: _278  and  _279
REMARK  114  A    between atoms: _278  and  _281
REMARK  115  A    between atoms: _281  and  _282
REMARK  116  A    between atoms: _282  and  _283
REMARK  117  A    between atoms: _283  and  _284
REMARK  118  A    between atoms: _284  and  _285
REMARK  119  A    between atoms: _289  and  _291
REMARK  120  A    between atoms: _291  and  _292
REMARK  121  A    between atoms: _291  and  _294
REMARK  122  A    between atoms: _294  and  _295
REMARK  123  A    between atoms: _298  and  _300
REMARK  124  A    between atoms: _300  and  _301
REMARK  125  A    between atoms: _300  and  _303
REMARK  126  A    between atoms: _303  and  _304
REMARK  127  A    between atoms: _307  and  _309
REMARK  128  A    between atoms: _309  and  _310
REMARK  129  A    between atoms: _309  and  _312
REMARK  130  A    between atoms: _312  and  _313
REMARK  131  A    between atoms: _313  and  _314
REMARK  132  A    between atoms: _316  and  _318
REMARK  133  A    between atoms: _318  and  _319
REMARK  134  A    between atoms: _318  and  _321
REMARK  135  A    between atoms: _321  and  _322
REMARK  136  A    between atoms: _322  and  _323
REMARK  137  A    between atoms: _325  and  _327
REMARK  138  A    between atoms: _327  and  _328
REMARK  139  A    between atoms: _327  and  _330
REMARK  140  A    between atoms: _330  and  _331
REMARK  141  A    between atoms: _336  and  _337
REMARK  142  A    between atoms: _339  and  _341
REMARK  143  A    between atoms: _341  and  _342
REMARK  144  A    between atoms: _341  and  _344
REMARK  145  A    between atoms: _344  and  _345
REMARK  146  A    between atoms: _350  and  _351
REMARK  147  A    between atoms: _353  and  _355
REMARK  148  A    between atoms: _355  and  _356
REMARK  149  A    between atoms: _355  and  _358
REMARK  150  A    between atoms: _361  and  _363
REMARK  151  A    between atoms: _363  and  _364
REMARK  152  A    between atoms: _367  and  _369
REMARK  153  A    between atoms: _369  and  _370
REMARK  154  A    between atoms: _372  and  _374
REMARK  155  A    between atoms: _374  and  _375
REMARK  156  A    between atoms: _374  and  _377
REMARK  157  A    between atoms: _377  and  _378
REMARK  158  A    between atoms: _381  and  _383
REMARK  159  A    between atoms: _383  and  _384
REMARK  160  A    between atoms: _383  and  _386
REMARK  161  A    between atoms: _389  and  _391
REMARK  162  A    between atoms: _391  and  _392
REMARK  163  A    between atoms: _394  and  _396
REMARK  164  A    between atoms: _396  and  _397
REMARK  165  A    between atoms: _399  and  _401
REMARK  166  A    between atoms: _401  and  _402
REMARK  167  A    between atoms: _401  and  _404
REMARK  168  A    between atoms: _404  and  _405
REMARK  169  A    between atoms: _408  and  _410
REMARK  170  A    between atoms: _410  and  _411
REMARK  171  A    between atoms: _410  and  _413
REMARK  172  A    between atoms: _413  and  _414
REMARK  173  A    between atoms: _417  and  _419
REMARK  174  A    between atoms: _419  and  _420
REMARK  175  A    between atoms: _419  and  _422
REMARK  176  A    between atoms: _422  and  _423
REMARK  177  A    between atoms: _429  and  _431
REMARK  178  A    between atoms: _431  and  _432
REMARK  179  A    between atoms: _431  and  _434
REMARK  180  A    between atoms: _434  and  _435
REMARK  181  A    between atoms: _435  and  _436
REMARK  182  A    between atoms: _438  and  _440
REMARK  183  A    between atoms: _440  and  _441
REMARK  184  A    between atoms: _440  and  _443
REMARK  185  A    between atoms: _443  and  _444
REMARK  186  A    between atoms: _450  and  _452
REMARK  187  A    between atoms: _452  and  _453
REMARK  188  A    between atoms: _452  and  _455
REMARK  189  A    between atoms: _455  and  _456
REMARK  190  A    between atoms: _459  and  _461
REMARK  191  A    between atoms: _461  and  _462
REMARK  192  A    between atoms: _461  and  _464
REMARK  193  A    between atoms: _464  and  _465
REMARK  194  A    between atoms: _465  and  _466
REMARK  195  A    between atoms: _471  and  _473
REMARK  196  A    between atoms: _473  and  _474
REMARK  197  A    between atoms: _473  and  _476
REMARK  198  A    between atoms: _476  and  _477
REMARK  199  A    between atoms: _477  and  _478
REMARK  200  A    between atoms: _478  and  _479
REMARK  201  A    between atoms: _479  and  _480
REMARK  202  A    between atoms: _484  and  _486
REMARK  203  A    between atoms: _486  and  _487
REMARK  204  A    between atoms: _486  and  _489
REMARK  205  A    between atoms: _489  and  _490
REMARK  206  A    between atoms: _493  and  _495
REMARK  207  A    between atoms: _495  and  _496
REMARK  208  A    between atoms: _495  and  _498
REMARK  209  A    between atoms: _498  and  _499
REMARK  210  A    between atoms: _504  and  _506
REMARK  211  A    between atoms: _506  and  _507
REMARK  212  A    between atoms: _506  and  _509
REMARK  213  A    between atoms: _509  and  _510
REMARK  214  A    between atoms: _513  and  _515
REMARK  215  A    between atoms: _515  and  _516
REMARK  216  A    between atoms: _515  and  _518
REMARK  217  A    between atoms: _518  and  _519
REMARK  218  A    between atoms: _519  and  _520
REMARK  219  A    between atoms: _520  and  _521
REMARK  220  A    between atoms: _530  and  _532
REMARK  221  A    between atoms: _532  and  _533
REMARK  222  A    between atoms: _532  and  _535
REMARK  223  A    between atoms: _535  and  _536
REMARK  224  A    between atoms: _539  and  _541
REMARK  225  A    between atoms: _541  and  _542
REMARK  226  A    between atoms: _541  and  _544
REMARK  227  A    between atoms: _544  and  _545
REMARK  228  A    between atoms: _545  and  _546
REMARK  229  A    between atoms: _549  and  _551
REMARK  230  A    between atoms: _551  and  _552
REMARK  231  A    between atoms: _551  and  _554
REMARK  232  A    between atoms: _554  and  _555
REMARK  233  A    between atoms: _561  and  _563
REMARK  234  A    between atoms: _563  and  _564
REMARK  235  A    between atoms: _563  and  _566
REMARK  236  A    between atoms: _566  and  _567
REMARK  237  A    between atoms: _571  and  _572
REMARK  238  A    between atoms: _577  and  _579
REMARK  239  A    between atoms: _579  and  _580
REMARK  240  A    between atoms: _579  and  _582
REMARK  241  A    between atoms: _582  and  _583
REMARK  242  A    between atoms: _583  and  _584
REMARK  243  A    between atoms: _589  and  _591
REMARK  244  A    between atoms: _591  and  _592
REMARK  245  A    between atoms: _591  and  _594
REMARK  246  A    between atoms: _597  and  _599
REMARK  247  A    between atoms: _599  and  _600
REMARK  248  A    between atoms: _599  and  _602
REMARK  249  A    between atoms: _602  and  _603
REMARK  250  A    between atoms: _603  and  _604
REMARK  251  A    between atoms: _606  and  _608
REMARK  252  A    between atoms: _608  and  _609
REMARK  253  A    between atoms: _612  and  _614
REMARK  254  A    between atoms: _614  and  _615
REMARK  255  A    between atoms: _614  and  _617
REMARK  256  A    between atoms: _617  and  _618
REMARK  257  A    between atoms: _621  and  _623
REMARK  258  A    between atoms: _623  and  _624
REMARK  259  A    between atoms: _627  and  _629
REMARK  260  A    between atoms: _629  and  _630
REMARK  261  A    between atoms: _629  and  _632
REMARK  262  A    between atoms: _632  and  _633
REMARK  263  A    between atoms: _636  and  _638
REMARK  264  A    between atoms: _638  and  _639
REMARK  265  A    between atoms: _638  and  _641
REMARK  266  A    between atoms: _641  and  _642
REMARK  267  A    between atoms: _645  and  _647
REMARK  268  A    between atoms: _647  and  _648
REMARK  269  A    between atoms: _647  and  _650
REMARK  270  A    between atoms: _650  and  _651
REMARK  271  A    between atoms: _654  and  _656
REMARK  272  A    between atoms: _656  and  _657
REMARK  273  A    between atoms: _656  and  _659
REMARK  274  A    between atoms: _659  and  _660
REMARK  275  A    between atoms: _660  and  _661
REMARK  276  A    between atoms: _666  and  _668
REMARK  277  A    between atoms: _668  and  _669
REMARK  278  A    between atoms: _672  and  _674
REMARK  279  A    between atoms: _674  and  _675
REMARK  280  A    between atoms: _674  and  _677
REMARK  281  A    between atoms: _680  and  _682
REMARK  282  A    between atoms: _682  and  _683
REMARK  283  A    between atoms: _682  and  _685
REMARK  284  A    between atoms: _685  and  _686
REMARK  285  A    between atoms: _689  and  _691
REMARK  286  A    between atoms: _691  and  _692
REMARK  287  A    between atoms: _691  and  _694
REMARK  288  A    between atoms: _694  and  _695
REMARK  289  A    between atoms: _695  and  _696
REMARK                            x       y       z     vdW  Elec       q    Type
REMARK                         _______ _______ _______ _____ _____    ______ ____
ROOT
ATOM      1  CB  PHE A   1      21.115  54.725  41.369  0.00  0.00    +0.051 C 
ENDROOT
BRANCH   1   2
ATOM      2  CG  PHE A   1      20.369  55.928  41.885  0.00  0.00    -0.020 A 
ATOM      3  CD2 PHE A   1      20.893  56.729  42.904  0.00  0.00    -0.004 A 
ATOM      4  CE2 PHE A   1      20.182  57.849  43.385  0.00  0.00    -0.000 A 
ATOM      5  CZ  PHE A   1      18.920  58.131  42.884  0.00  0.00    -0.000 A 
ATOM      6  CE1 PHE A   1      18.377  57.317  41.875  0.00  0.00    -0.000 A 
ATOM      7  CD1 PHE A   1      19.104  56.220  41.388  0.00  0.00    -0.004 A 
ENDBRANCH   1   2
BRANCH   1   8
ATOM      8  CA  PHE A   1      20.883  53.441  42.194  0.00  0.00    +0.137 C 
BRANCH   8   9
ATOM      9  N   PHE A   1      21.448  52.290  41.491  0.00  0.00    -0.239 NA
ATOM     10  H   PHE A   1      21.922  52.441  40.578  0.00  0.00    +0.142 HD
ENDBRANCH   8   9
BRANCH   8  11
ATOM     11  C   PHE A   1      19.396  53.241  42.521  0.00  0.00    +0.224 C 
ATOM     12  O   PHE A   1      18.953  53.605  43.610  0.00  0.00    -0.287 OA
ENDBRANCH   8  11
ENDBRANCH   1   8
TORSDOF 4
REMARK  Name = ../refined-set-2016/3vjc/3vjc_pocket.pdb
REMARK  289 active torsions:
REMARK  status: ('A' for Active; 'I' for Inactive)
REMARK    1  A    between atoms: _1  and  _3
REMARK    2  A    between atoms: _3  and  _4
REMARK    3  A    between atoms: _3  and  _6
REMARK    4  A    between atoms: _6  and  _7
REMARK    5  A    between atoms: _10  and  _12
REMARK    6  A    between atoms: _12  and  _13
REMARK    7  A    between atoms: _12  and  _15
REMARK    8  A    between atoms: _15  and  _16
REMARK    9  A    between atoms: _21  and  _23
REMARK   10  A    between atoms: _23  and  _24
REMARK   11  A    between atoms: _23  and  _26
REMARK   12  A    between atoms: _26  and  _27
REMARK   13  A    between atoms: _27  and  _28
REMARK   14  A    between atoms: _33  and  _35
REMARK   15  A    between atoms: _35  and  _36
REMARK   16  A    between atoms: _35  and  _38
REMARK   17  A    between atoms: _38  and  _39
REMARK   18  A    between atoms: _42  and  _44
REMARK   19  A    between atoms: _44  and  _45
REMARK   20  A    between atoms: _44  and  _47
REMARK   21  A    between atoms: _47  and  _48
REMARK   22  A    between atoms: _50  and  _52
REMARK   23  A    between atoms: _52  and  _53
REMARK   24  A    between atoms: _52  and  _55
REMARK   25  A    between atoms: _55  and  _56
REMARK   26  A    between atoms: _56  and  _57
REMARK   27  A    between atoms: _57  and  _58
REMARK   28  A    between atoms: _67  and  _69
REMARK   29  A    between atoms: _69  and  _70
REMARK   30  A    between atoms: _69  and  _72
REMARK   31  A    between atoms: _72  and  _73
REMARK   32  A    between atoms: _75  and  _77
REMARK   33  A    between atoms: _77  and  _78
REMARK   34  A    between atoms: _77  and  _80
REMARK   35  A    between atoms: _80  and  _81
REMARK   36  A    between atoms: _87  and  _89
REMARK   37  A    between atoms: _89  and  _90
REMARK   38  A    between atoms: _93  and  _95
REMARK   39  A    between atoms: _95  and  _96
REMARK   40  A    between atoms: _99  and  _101
REMARK   41  A    between atoms: _101  and  _102
REMARK   42  A    between atoms: _101  and  _104
REMARK   43  A    between atoms: _107  and  _109
REMARK   44  A    between atoms: _109  and  _110
REMARK   45  A    between atoms: _109  and  _112
REMARK   46  A    between atoms: _112  and  _113
REMARK   47  A    between atoms: _116  and  _118
REMARK   48  A    between atoms: _118  and  _119
REMARK   49  A    between atoms: _118  and  _121
REMARK   50  A    between atoms: _121  and  _122
REMARK   51  A    between atoms: _125  and  _127
REMARK   52  A    between atoms: _127  and  _128
REMARK   53  A    between atoms: _131  and  _133
REMARK   54  A    between atoms: _133  and  _134
REMARK   55  A    between atoms: _133  and  _136
REMARK   56  A    between atoms: _139  and  _141
REMARK   57  A    between atoms: _141  and  _142
REMARK   58  A    between atoms: _141  and  _144
REMARK   59  A    between atoms: _146  and  _148
REMARK   60  A    between atoms: _148  and  _149
REMARK   61  A    between atoms: _148  and  _151
REMARK   62  A    between atoms: _151  and  _152
REMARK   63  A    between atoms: _155  and  _157
REMARK   64  A    between atoms: _157  and  _158
REMARK   65  A    between atoms: _157  and  _160
REMARK   66  A    between atoms: _160  and  _161
REMARK   67  A    between atoms: _167  and  _169
REMARK   68  A    between atoms: _169  and  _170
REMARK   69  A    between atoms: _169  and  _172
REMARK   70  A    between atoms: _172  and  _173
REMARK   71  A    between atoms: _178  and  _179
REMARK   72  A    between atoms: _181  and  _183
REMARK   73  A    between atoms: _183  and  _184
REMARK   74  A    between atoms: _183  and  _186
REMARK   75  A    between atoms: _186  and  _187
REMARK   76  A    between atoms: _190  and  _192
REMARK   77  A    between atoms: _192  and  _193
REMARK   78  A    between atoms: _192  and  _195
REMARK   79  A    between atoms: _198  and  _200
REMARK   80  A    between atoms: _200  and  _201
REMARK   81  A    between atoms: _200  and  _203
REMARK   82  A    between atoms: _203  and  _204
REMARK   83  A    between atoms: _207  and  _209
REMARK   84  A    between atoms: _209  and  _210
REMARK   85  A    between atoms: _209  and  _212
REMARK   86  A    between atoms: _212  and  _213
REMARK   87  A    between atoms: _213  and  _214
REMARK   88  A    between atoms: _214  and  _215
REMARK   89  A    between atoms: _224  and  _226
REMARK   90  A    between atoms: _226  and  _227
REMARK   91  A    between atoms: _230  and  _232
REMARK   92  A    between atoms: _232  and  _233
REMARK   93  A    between atoms: _232  and  _235
REMARK   94  A    between atoms: _235  and  _236
REMARK   95  A    between atoms: _239  and  _241
REMARK   96  A    between atoms: _241  and  _242
REMARK   97  A    between atoms: _241  and  _244
REMARK   98  A    between atoms: _244  and  _245
REMARK   99  A    between atoms: _248  and  _250
REMARK  100  A    between atoms: _250  and  _251
REMARK  101  A    between atoms: _250  and  _253
REMARK  102  A    between atoms: _253  and  _254
REMARK  103  A    between atoms: _257  and  _259
REMARK  104  A    between atoms: _259  and  _260
REMARK  105  A    between atoms: _259  and  _262
REMARK  106  A    between atoms: _262  and  _263
REMARK  107  A    between atoms: _263  and  _264
REMARK  108  A    between atoms: _267  and  _269
REMARK  109  A    between atoms: _269  and  _270
REMARK  110  A    between atoms: _269  and  _272
REMARK  111  A    between atoms: _272  and  _273
REMARK  112  A    between atoms: _276  and  _278
REMARK  113  A    between atoms: _278  and  _279
REMARK  114  A    between atoms: _278  and  _281
REMARK  115  A    between atoms: _281  and  _282
REMARK  116  A    between atoms: _282  and  _283
REMARK  117  A    between atoms: _283  and  _284
REMARK  118  A    between atoms: _284  and  _285
REMARK  119  A    between atoms: _289  and  _291
REMARK  120  A    between atoms: _291  and  _292
REMARK  121  A    between atoms: _291  and  _294
REMARK  122  A    between atoms: _294  and  _295
REMARK  123  A    between atoms: _298  and  _300
REMARK  124  A    between atoms: _300  and  _301
REMARK  125  A    between atoms: _300  and  _303
REMARK  126  A    between atoms: _303  and  _304
REMARK  127  A    between atoms: _307  and  _309
REMARK  128  A    between atoms: _309  and  _310
REMARK  129  A    between atoms: _309  and  _312
REMARK  130  A    between atoms: _312  and  _313
REMARK  131  A    between atoms: _313  and  _314
REMARK  132  A    between atoms: _316  and  _318
REMARK  133  A    between atoms: _318  and  _319
REMARK  134  A    between atoms: _318  and  _321
REMARK  135  A    between atoms: _321  and  _322
REMARK  136  A    between atoms: _322  and  _323
REMARK  137  A    between atoms: _325  and  _327
REMARK  138  A    between atoms: _327  and  _328
REMARK  139  A    between atoms: _327  and  _330
REMARK  140  A    between atoms: _330  and  _331
REMARK  141  A    between atoms: _336  and  _337
REMARK  142  A    between atoms: _339  and  _341
REMARK  143  A    between atoms: _341  and  _342
REMARK  144  A    between atoms: _341  and  _344
REMARK  145  A    between atoms: _344  and  _345
REMARK  146  A    between atoms: _350  and  _351
REMARK  147  A    between atoms: _353  and  _355
REMARK  148  A    between atoms: _355  and  _356
REMARK  149  A    between atoms: _355  and  _358
REMARK  150  A    between atoms: _361  and  _363
REMARK  151  A    between atoms: _363  and  _364
REMARK  152  A    between atoms: _367  and  _369
REMARK  153  A    between atoms: _369  and  _370
REMARK  154  A    between atoms: _372  and  _374
REMARK  155  A    between atoms: _374  and  _375
REMARK  156  A    between atoms: _374  and  _377
REMARK  157  A    between atoms: _377  and  _378
REMARK  158  A    between atoms: _381  and  _383
REMARK  159  A    between atoms: _383  and  _384
REMARK  160  A    between atoms: _383  and  _386
REMARK  161  A    between atoms: _389  and  _391
REMARK  162  A    between atoms: _391  and  _392
REMARK  163  A    between atoms: _394  and  _396
REMARK  164  A    between atoms: _396  and  _397
REMARK  165  A    between atoms: _399  and  _401
REMARK  166  A    between atoms: _401  and  _402
REMARK  167  A    between atoms: _401  and  _404
REMARK  168  A    between atoms: _404  and  _405
REMARK  169  A    between atoms: _408  and  _410
REMARK  170  A    between atoms: _410  and  _411
REMARK  171  A    between atoms: _410  and  _413
REMARK  172  A    between atoms: _413  and  _414
REMARK  173  A    between atoms: _417  and  _419
REMARK  174  A    between atoms: _419  and  _420
REMARK  175  A    between atoms: _419  and  _422
REMARK  176  A    between atoms: _422  and  _423
REMARK  177  A    between atoms: _429  and  _431
REMARK  178  A    between atoms: _431  and  _432
REMARK  179  A    between atoms: _431  and  _434
REMARK  180  A    between atoms: _434  and  _435
REMARK  181  A    between atoms: _435  and  _436
REMARK  182  A    between atoms: _438  and  _440
REMARK  183  A    between atoms: _440  and  _441
REMARK  184  A    between atoms: _440  and  _443
REMARK  185  A    between atoms: _443  and  _444
REMARK  186  A    between atoms: _450  and  _452
REMARK  187  A    between atoms: _452  and  _453
REMARK  188  A    between atoms: _452  and  _455
REMARK  189  A    between atoms: _455  and  _456
REMARK  190  A    between atoms: _459  and  _461
REMARK  191  A    between atoms: _461  and  _462
REMARK  192  A    between atoms: _461  and  _464
REMARK  193  A    between atoms: _464  and  _465
REMARK  194  A    between atoms: _465  and  _466
REMARK  195  A    between atoms: _471  and  _473
REMARK  196  A    between atoms: _473  and  _474
REMARK  197  A    between atoms: _473  and  _476
REMARK  198  A    between atoms: _476  and  _477
REMARK  199  A    between atoms: _477  and  _478
REMARK  200  A    between atoms: _478  and  _479
REMARK  201  A    between atoms: _479  and  _480
REMARK  202  A    between atoms: _484  and  _486
REMARK  203  A    between atoms: _486  and  _487
REMARK  204  A    between atoms: _486  and  _489
REMARK  205  A    between atoms: _489  and  _490
REMARK  206  A    between atoms: _493  and  _495
REMARK  207  A    between atoms: _495  and  _496
REMARK  208  A    between atoms: _495  and  _498
REMARK  209  A    between atoms: _498  and  _499
REMARK  210  A    between atoms: _504  and  _506
REMARK  211  A    between atoms: _506  and  _507
REMARK  212  A    between atoms: _506  and  _509
REMARK  213  A    between atoms: _509  and  _510
REMARK  214  A    between atoms: _513  and  _515
REMARK  215  A    between atoms: _515  and  _516
REMARK  216  A    between atoms: _515  and  _518
REMARK  217  A    between atoms: _518  and  _519
REMARK  218  A    between atoms: _519  and  _520
REMARK  219  A    between atoms: _520  and  _521
REMARK  220  A    between atoms: _530  and  _532
REMARK  221  A    between atoms: _532  and  _533
REMARK  222  A    between atoms: _532  and  _535
REMARK  223  A    between atoms: _535  and  _536
REMARK  224  A    between atoms: _539  and  _541
REMARK  225  A    between atoms: _541  and  _542
REMARK  226  A    between atoms: _541  and  _544
REMARK  227  A    between atoms: _544  and  _545
REMARK  228  A    between atoms: _545  and  _546
REMARK  229  A    between atoms: _549  and  _551
REMARK  230  A    between atoms: _551  and  _552
REMARK  231  A    between atoms: _551  and  _554
REMARK  232  A    between atoms: _554  and  _555
REMARK  233  A    between atoms: _561  and  _563
REMARK  234  A    between atoms: _563  and  _564
REMARK  235  A    between atoms: _563  and  _566
REMARK  236  A    between atoms: _566  and  _567
REMARK  237  A    between atoms: _571  and  _572
REMARK  238  A    between atoms: _577  and  _579
REMARK  239  A    between atoms: _579  and  _580
REMARK  240  A    between atoms: _579  and  _582
REMARK  241  A    between atoms: _582  and  _583
REMARK  242  A    between atoms: _583  and  _584
REMARK  243  A    between atoms: _589  and  _591
REMARK  244  A    between atoms: _591  and  _592
REMARK  245  A    between atoms: _591  and  _594
REMARK  246  A    between atoms: _597  and  _599
REMARK  247  A    between atoms: _599  and  _600
REMARK  248  A    between atoms: _599  and  _602
REMARK  249  A    between atoms: _602  and  _603
REMARK  250  A    between atoms: _603  and  _604
REMARK  251  A    between atoms: _606  and  _608
REMARK  252  A    between atoms: _608  and  _609
REMARK  253  A    between atoms: _612  and  _614
REMARK  254  A    between atoms: _614  and  _615
REMARK  255  A    between atoms: _614  and  _617
REMARK  256  A    between atoms: _617  and  _618
REMARK  257  A    between atoms: _621  and  _623
REMARK  258  A    between atoms: _623  and  _624
REMARK  259  A    between atoms: _627  and  _629
REMARK  260  A    between atoms: _629  and  _630
REMARK  261  A    between atoms: _629  and  _632
REMARK  262  A    between atoms: _632  and  _633
REMARK  263  A    between atoms: _636  and  _638
REMARK  264  A    between atoms: _638  and  _639
REMARK  265  A    between atoms: _638  and  _641
REMARK  266  A    between atoms: _641  and  _642
REMARK  267  A    between atoms: _645  and  _647
REMARK  268  A    between atoms: _647  and  _648
REMARK  269  A    between atoms: _647  and  _650
REMARK  270  A    between atoms: _650  and  _651
REMARK  271  A    between atoms: _654  and  _656
REMARK  272  A    between atoms: _656  and  _657
REMARK  273  A    between atoms: _656  and  _659
REMARK  274  A    between atoms: _659  and  _660
REMARK  275  A    between atoms: _660  and  _661
REMARK  276  A    between atoms: _666  and  _668
REMARK  277  A    between atoms: _668  and  _669
REMARK  278  A    between atoms: _672  and  _674
REMARK  279  A    between atoms: _674  and  _675
REMARK  280  A    between atoms: _674  and  _677
REMARK  281  A    between atoms: _680  and  _682
REMARK  282  A    between atoms: _682  and  _683
REMARK  283  A    between atoms: _682  and  _685
REMARK  284  A    between atoms: _685  and  _686
REMARK  285  A    between atoms: _689  and  _691
REMARK  286  A    between atoms: _691  and  _692
REMARK  287  A    between atoms: _691  and  _694
REMARK  288  A    between atoms: _694  and  _695
REMARK  289  A    between atoms: _695  and  _696
REMARK                            x       y       z     vdW  Elec       q    Type
REMARK                         _______ _______ _______ _____ _____    ______ ____
ROOT
ATOM      1  CA  MET A   5      16.398  47.767  51.423  0.00  0.00    +0.149 C 
ENDROOT
BRANCH   1   4
ATOM      2  C   VAL A   4      15.453  46.383  49.697  0.00  0.00    +0.241 C 
ATOM      3  O   VAL A   4      14.921  45.658  50.546  0.00  0.00    -0.273 OA
ATOM      4  N   MET A   5      16.196  47.437  50.018  0.00  0.00    -0.297 N 
ATOM      5  H   MET A   5      16.629  48.021  49.274  0.00  0.00    +0.150 HD
BRANCH   2   6
ATOM      6  CA  VAL A   4      15.266  46.127  48.199  0.00  0.00    +0.149 C 
BRANCH   6   9
ATOM      7  C   GLN A   3      13.923  48.108  47.728  0.00  0.00    +0.241 C 
ATOM      8  O   GLN A   3      13.021  47.750  48.492  0.00  0.00    -0.273 OA
ATOM      9  N   VAL A   4      15.032  47.397  47.527  0.00  0.00    -0.297 N 
ATOM     10  H   VAL A   4      15.752  47.760  46.870  0.00  0.00    +0.150 HD
BRANCH   7  11
ATOM     11  CA  GLN A   3      13.808  49.426  46.957  0.00  0.00    +0.149 C 
BRANCH  11  14
ATOM     12  C   PRO A   2      15.616  50.606  48.046  0.00  0.00    +0.241 C 
ATOM     13  O   PRO A   2      15.053  50.496  49.125  0.00  0.00    -0.273 OA
ATOM     14  N   GLN A   3      15.074  50.155  46.919  0.00  0.00    -0.297 N 
ATOM     15  H   GLN A   3      15.551  50.321  46.010  0.00  0.00    +0.150 HD
BRANCH  12  19
ATOM     16  C   ILE A   1      18.262  49.517  47.099  0.00  0.00    +0.241 C 
ATOM     17  O   ILE A   1      17.886  48.799  48.028  0.00  0.00    -0.273 OA
ATOM     18  N   PRO A   2      17.848  50.794  46.955  0.00  0.00    -0.272 N 
ATOM     19  CA  PRO A   2      16.956  51.328  47.981  0.00  0.00    +0.152 C 
ATOM     20  CB  PRO A   2      16.775  52.806  47.579  0.00  0.00    +0.031 C 
ATOM     21  CG  PRO A   2      18.051  53.140  46.813  0.00  0.00    +0.024 C 
ATOM     22  CD  PRO A   2      18.256  51.848  46.004  0.00  0.00    +0.094 C 
BRANCH  16  23
ATOM     23  CA  ILE A   1      19.163  48.921  46.014  0.00  0.00    +0.145 C 
BRANCH  23  24
ATOM     24  CB  ILE A   1      20.644  49.295  46.139  0.00  0.00    +0.025 C 
ATOM     25  CG2 ILE A   1      21.024  49.400  47.620  0.00  0.00    +0.002 C 
BRANCH  24  26
ATOM     26  CG1 ILE A   1      21.466  48.212  45.424  0.00  0.00    +0.002 C 
ATOM     27  CD1 ILE A   1      22.817  48.660  45.017  0.00  0.00    +0.000 C 
ENDBRANCH  24  26
ENDBRANCH  23  24
BRANCH  23  28
ATOM     28  N   ILE A   1      18.644  49.168  44.673  0.00  0.00    -0.238 NA
ATOM     29  H   ILE A   1      19.200  49.720  43.990  0.00  0.00    +0.142 HD
ENDBRANCH  23  28
ENDBRANCH  16  23
ENDBRANCH  12  19
ENDBRANCH  11  14
BRANCH  11  30
ATOM     30  CB  GLN A   3      13.321  49.147  45.522  0.00  0.00    +0.039 C 
BRANCH  30  31
ATOM     31  CG  GLN A   3      13.065  50.441  44.745  0.00  0.00    +0.087 C 
BRANCH  31  32
ATOM     32  CD  GLN A   3      11.910  51.247  45.308  0.00  0.00    +0.219 C 
ATOM     33  OE1 GLN A   3      10.946  50.673  45.801  0.00  0.00    -0.275 OA
ATOM     34  NE2 GLN A   3      11.973  52.573  45.190  0.00  0.00    -0.329 N 
ATOM     35 HE21 GLN A   3      11.184  53.163  45.523  0.00  0.00    +0.145 HD
ATOM     36 HE22 GLN A   3      12.811  53.018  44.765  0.00  0.00    +0.145 HD
ENDBRANCH  31  32
ENDBRANCH  30  31
ENDBRANCH  11  30
ENDBRANCH   7  11
ENDBRANCH   6   9
BRANCH   6  37
ATOM     37  CB  VAL A   4      16.481  45.386  47.580  0.00  0.00    +0.027 C 
ATOM     38  CG2 VAL A   4      16.878  44.182  48.435  0.00  0.00    +0.002 C 
ATOM     39  CG1 VAL A   4      16.129  44.897  46.173  0.00  0.00    +0.002 C 
ENDBRANCH   6  37
ENDBRANCH   2   6
ENDBRANCH   1   4
BRANCH   1  40
ATOM     40  C   MET A   5      15.083  48.142  52.101  0.00  0.00    +0.241 C 
ATOM     41  O   MET A   5      14.901  47.832  53.274  0.00  0.00    -0.273 OA
ATOM     42  N   ALA A   6      14.184  48.812  51.383  0.00  0.00    -0.297 N 
ATOM     43  H   ALA A   6      14.420  49.095  50.410  0.00  0.00    +0.150 HD
BRANCH  42  44
ATOM     44  CA  ALA A   6      12.865  49.162  51.932  0.00  0.00    +0.149 C 
ATOM     45  CB  ALA A   6      12.113  50.153  51.033  0.00  0.00    +0.031 C 
BRANCH  44  46
ATOM     46  C   ALA A   6      12.035  47.901  52.122  0.00  0.00    +0.241 C 
ATOM     47  O   ALA A   6      11.366  47.748  53.144  0.00  0.00    -0.273 OA
ATOM     48  N   ILE A   7      12.075  46.985  51.159  0.00  0.00    -0.297 N 
ATOM     49  H   ILE A   7      12.611  47.166  50.286  0.00  0.00    +0.150 HD
BRANCH  48  50
ATOM     50  CA  ILE A   7      11.356  45.715  51.337  0.00  0.00    +0.149 C 
BRANCH  50  51
ATOM     51  C   ILE A   7      11.897  44.936  52.542  0.00  0.00    +0.241 C 
ATOM     52  O   ILE A   7      11.116  44.407  53.340  0.00  0.00    -0.273 OA
ATOM     53  N   ALA A   8      13.225  44.876  52.673  0.00  0.00    -0.297 N 
ATOM     54  H   ALA A   8      13.824  45.283  51.927  0.00  0.00    +0.150 HD
BRANCH  53  55
ATOM     55  CA  ALA A   8      13.860  44.258  53.829  0.00  0.00    +0.149 C 
ATOM     56  CB  ALA A   8      15.397  44.281  53.706  0.00  0.00    +0.031 C 
BRANCH  55  57
ATOM     57  C   ALA A   8      13.418  44.925  55.134  0.00  0.00    +0.241 C 
ATOM     58  O   ALA A   8      13.209  44.246  56.143  0.00  0.00    -0.273 OA
ATOM     59  N   THR A   9      13.246  46.244  55.094  0.00  0.00    -0.295 N 
ATOM     60  H   THR A   9      13.450  46.748  54.208  0.00  0.00    +0.150 HD
BRANCH  59  61
ATOM     61  CA  THR A   9      12.782  47.010  56.247  0.00  0.00    +0.176 C 
BRANCH  61  62
ATOM     62  C   THR A   9      11.322  46.687  56.596  0.00  0.00    +0.243 C 
ATOM     63  O   THR A   9      10.998  46.469  57.762  0.00  0.00    -0.273 OA
ATOM     64  N   LEU A  10      10.439  46.656  55.602  0.00  0.00    -0.298 N 
ATOM     65  H   LEU A  10      10.734  46.917  54.639  0.00  0.00    +0.150 HD
BRANCH  64  66
ATOM     66  CA  LEU A  10       9.053  46.256  55.857  0.00  0.00    +0.137 C 
BRANCH  66  67
ATOM     67  C   LEU A  10       8.970  44.855  56.442  0.00  0.00    +0.227 C 
ATOM     68  O   LEU A  10       8.146  44.609  57.321  0.00  0.00    -0.286 OA
ENDBRANCH  66  67
BRANCH  66  69
ATOM     69  CB  LEU A  10       8.192  46.299  54.587  0.00  0.00    +0.028 C 
BRANCH  69  70
ATOM     70  CG  LEU A  10       7.898  47.718  54.113  0.00  0.00    +0.002 C 
ATOM     71  CD2 LEU A  10       7.272  48.555  55.222  0.00  0.00    +0.000 C 
ATOM     72  CD1 LEU A  10       6.963  47.629  52.915  0.00  0.00    +0.000 C 
ENDBRANCH  69  70
ENDBRANCH  66  69
ENDBRANCH  64  66
ENDBRANCH  61  62
BRANCH  61  73
ATOM     73  CB  THR A   9      12.954  48.516  55.977  0.00  0.00    +0.137 C 
ATOM     74  CG2 THR A   9      12.371  49.336  57.113  0.00  0.00    +0.034 C 
BRANCH  73  75
ATOM     75  OG1 THR A   9      14.355  48.803  55.881  0.00  0.00    -0.382 OA
ATOM     76  HG1 THR A   9      14.748  48.279  55.139  0.00  0.00    +0.210 HD
ENDBRANCH  73  75
ENDBRANCH  61  73
ENDBRANCH  59  61
ENDBRANCH  55  57
ENDBRANCH  53  55
ENDBRANCH  50  51
BRANCH  50  77
ATOM     77  CB  ILE A   7      11.360  44.885  50.037  0.00  0.00    +0.027 C 
ATOM     78  CG2 ILE A   7      10.780  43.497  50.286  0.00  0.00    +0.002 C 
BRANCH  77  79
ATOM     79  CG1 ILE A   7      10.521  45.611  48.978  0.00  0.00    +0.002 C 
ATOM     80  CD1 ILE A   7      10.648  45.104  47.521  0.00  0.00    +0.000 C 
ENDBRANCH  77  79
ENDBRANCH  50  77
ENDBRANCH  48  50
ENDBRANCH  44  46
ENDBRANCH  42  44
ENDBRANCH   1  40
BRANCH   1  81
ATOM     81  CB  MET A   5      17.414  48.899  51.550  0.00  0.00    +0.041 C 
BRANCH  81  82
ATOM     82  CG  MET A   5      18.804  48.406  51.190  0.00  0.00    +0.060 C 
BRANCH  82  83
ATOM     83  SD  MET A   5      20.001  49.742  51.271  0.00  0.00    -0.139 S 
ATOM     84  CE  MET A   5      20.123  50.005  53.050  0.00  0.00    +0.069 C 
ENDBRANCH  82  83
ENDBRANCH  81  82
ENDBRANCH   1  81
TORSDOF 34
REMARK  Name = ../refined-set-2016/3vjc/3vjc_pocket.pdb
REMARK  289 active torsions:
REMARK  status: ('A' for Active; 'I' for Inactive)
REMARK    1  A    between atoms: _1  and  _3
REMARK    2  A    between atoms: _3  and  _4
REMARK    3  A    between atoms: _3  and  _6
REMARK    4  A    between atoms: _6  and  _7
REMARK    5  A    between atoms: _10  and  _12
REMARK    6  A    between atoms: _12  and  _13
REMARK    7  A    between atoms: _12  and  _15
REMARK    8  A    between atoms: _15  and  _16
REMARK    9  A    between atoms: _21  and  _23
REMARK   10  A    between atoms: _23  and  _24
REMARK   11  A    between atoms: _23  and  _26
REMARK   12  A    between atoms: _26  and  _27
REMARK   13  A    between atoms: _27  and  _28
REMARK   14  A    between atoms: _33  and  _35
REMARK   15  A    between atoms: _35  and  _36
REMARK   16  A    between atoms: _35  and  _38
REMARK   17  A    between atoms: _38  and  _39
REMARK   18  A    between atoms: _42  and  _44
REMARK   19  A    between atoms: _44  and  _45
REMARK   20  A    between atoms: _44  and  _47
REMARK   21  A    between atoms: _47  and  _48
REMARK   22  A    between atoms: _50  and  _52
REMARK   23  A    between atoms: _52  and  _53
REMARK   24  A    between atoms: _52  and  _55
REMARK   25  A    between atoms: _55  and  _56
REMARK   26  A    between atoms: _56  and  _57
REMARK   27  A    between atoms: _57  and  _58
REMARK   28  A    between atoms: _67  and  _69
REMARK   29  A    between atoms: _69  and  _70
REMARK   30  A    between atoms: _69  and  _72
REMARK   31  A    between atoms: _72  and  _73
REMARK   32  A    between atoms: _75  and  _77
REMARK   33  A    between atoms: _77  and  _78
REMARK   34  A    between atoms: _77  and  _80
REMARK   35  A    between atoms: _80  and  _81
REMARK   36  A    between atoms: _87  and  _89
REMARK   37  A    between atoms: _89  and  _90
REMARK   38  A    between atoms: _93  and  _95
REMARK   39  A    between atoms: _95  and  _96
REMARK   40  A    between atoms: _99  and  _101
REMARK   41  A    between atoms: _101  and  _102
REMARK   42  A    between atoms: _101  and  _104
REMARK   43  A    between atoms: _107  and  _109
REMARK   44  A    between atoms: _109  and  _110
REMARK   45  A    between atoms: _109  and  _112
REMARK   46  A    between atoms: _112  and  _113
REMARK   47  A    between atoms: _116  and  _118
REMARK   48  A    between atoms: _118  and  _119
REMARK   49  A    between atoms: _118  and  _121
REMARK   50  A    between atoms: _121  and  _122
REMARK   51  A    between atoms: _125  and  _127
REMARK   52  A    between atoms: _127  and  _128
REMARK   53  A    between atoms: _131  and  _133
REMARK   54  A    between atoms: _133  and  _134
REMARK   55  A    between atoms: _133  and  _136
REMARK   56  A    between atoms: _139  and  _141
REMARK   57  A    between atoms: _141  and  _142
REMARK   58  A    between atoms: _141  and  _144
REMARK   59  A    between atoms: _146  and  _148
REMARK   60  A    between atoms: _148  and  _149
REMARK   61  A    between atoms: _148  and  _151
REMARK   62  A    between atoms: _151  and  _152
REMARK   63  A    between atoms: _155  and  _157
REMARK   64  A    between atoms: _157  and  _158
REMARK   65  A    between atoms: _157  and  _160
REMARK   66  A    between atoms: _160  and  _161
REMARK   67  A    between atoms: _167  and  _169
REMARK   68  A    between atoms: _169  and  _170
REMARK   69  A    between atoms: _169  and  _172
REMARK   70  A    between atoms: _172  and  _173
REMARK   71  A    between atoms: _178  and  _179
REMARK   72  A    between atoms: _181  and  _183
REMARK   73  A    between atoms: _183  and  _184
REMARK   74  A    between atoms: _183  and  _186
REMARK   75  A    between atoms: _186  and  _187
REMARK   76  A    between atoms: _190  and  _192
REMARK   77  A    between atoms: _192  and  _193
REMARK   78  A    between atoms: _192  and  _195
REMARK   79  A    between atoms: _198  and  _200
REMARK   80  A    between atoms: _200  and  _201
REMARK   81  A    between atoms: _200  and  _203
REMARK   82  A    between atoms: _203  and  _204
REMARK   83  A    between atoms: _207  and  _209
REMARK   84  A    between atoms: _209  and  _210
REMARK   85  A    between atoms: _209  and  _212
REMARK   86  A    between atoms: _212  and  _213
REMARK   87  A    between atoms: _213  and  _214
REMARK   88  A    between atoms: _214  and  _215
REMARK   89  A    between atoms: _224  and  _226
REMARK   90  A    between atoms: _226  and  _227
REMARK   91  A    between atoms: _230  and  _232
REMARK   92  A    between atoms: _232  and  _233
REMARK   93  A    between atoms: _232  and  _235
REMARK   94  A    between atoms: _235  and  _236
REMARK   95  A    between atoms: _239  and  _241
REMARK   96  A    between atoms: _241  and  _242
REMARK   97  A    between atoms: _241  and  _244
REMARK   98  A    between atoms: _244  and  _245
REMARK   99  A    between atoms: _248  and  _250
REMARK  100  A    between atoms: _250  and  _251
REMARK  101  A    between atoms: _250  and  _253
REMARK  102  A    between atoms: _253  and  _254
REMARK  103  A    between atoms: _257  and  _259
REMARK  104  A    between atoms: _259  and  _260
REMARK  105  A    between atoms: _259  and  _262
REMARK  106  A    between atoms: _262  and  _263
REMARK  107  A    between atoms: _263  and  _264
REMARK  108  A    between atoms: _267  and  _269
REMARK  109  A    between atoms: _269  and  _270
REMARK  110  A    between atoms: _269  and  _272
REMARK  111  A    between atoms: _272  and  _273
REMARK  112  A    between atoms: _276  and  _278
REMARK  113  A    between atoms: _278  and  _279
REMARK  114  A    between atoms: _278  and  _281
REMARK  115  A    between atoms: _281  and  _282
REMARK  116  A    between atoms: _282  and  _283
REMARK  117  A    between atoms: _283  and  _284
REMARK  118  A    between atoms: _284  and  _285
REMARK  119  A    between atoms: _289  and  _291
REMARK  120  A    between atoms: _291  and  _292
REMARK  121  A    between atoms: _291  and  _294
REMARK  122  A    between atoms: _294  and  _295
REMARK  123  A    between atoms: _298  and  _300
REMARK  124  A    between atoms: _300  and  _301
REMARK  125  A    between atoms: _300  and  _303
REMARK  126  A    between atoms: _303  and  _304
REMARK  127  A    between atoms: _307  and  _309
REMARK  128  A    between atoms: _309  and  _310
REMARK  129  A    between atoms: _309  and  _312
REMARK  130  A    between atoms: _312  and  _313
REMARK  131  A    between atoms: _313  and  _314
REMARK  132  A    between atoms: _316  and  _318
REMARK  133  A    between atoms: _318  and  _319
REMARK  134  A    between atoms: _318  and  _321
REMARK  135  A    between atoms: _321  and  _322
REMARK  136  A    between atoms: _322  and  _323
REMARK  137  A    between atoms: _325  and  _327
REMARK  138  A    between atoms: _327  and  _328
REMARK  139  A    between atoms: _327  and  _330
REMARK  140  A    between atoms: _330  and  _331
REMARK  141  A    between atoms: _336  and  _337
REMARK  142  A    between atoms: _339  and  _341
REMARK  143  A    between atoms: _341  and  _342
REMARK  144  A    between atoms: _341  and  _344
REMARK  145  A    between atoms: _344  and  _345
REMARK  146  A    between atoms: _350  and  _351
REMARK  147  A    between atoms: _353  and  _355
REMARK  148  A    between atoms: _355  and  _356
REMARK  149  A    between atoms: _355  and  _358
REMARK  150  A    between atoms: _361  and  _363
REMARK  151  A    between atoms: _363  and  _364
REMARK  152  A    between atoms: _367  and  _369
REMARK  153  A    between atoms: _369  and  _370
REMARK  154  A    between atoms: _372  and  _374
REMARK  155  A    between atoms: _374  and  _375
REMARK  156  A    between atoms: _374  and  _377
REMARK  157  A    between atoms: _377  and  _378
REMARK  158  A    between atoms: _381  and  _383
REMARK  159  A    between atoms: _383  and  _384
REMARK  160  A    between atoms: _383  and  _386
REMARK  161  A    between atoms: _389  and  _391
REMARK  162  A    between atoms: _391  and  _392
REMARK  163  A    between atoms: _394  and  _396
REMARK  164  A    between atoms: _396  and  _397
REMARK  165  A    between atoms: _399  and  _401
REMARK  166  A    between atoms: _401  and  _402
REMARK  167  A    between atoms: _401  and  _404
REMARK  168  A    between atoms: _404  and  _405
REMARK  169  A    between atoms: _408  and  _410
REMARK  170  A    between atoms: _410  and  _411
REMARK  171  A    between atoms: _410  and  _413
REMARK  172  A    between atoms: _413  and  _414
REMARK  173  A    between atoms: _417  and  _419
REMARK  174  A    between atoms: _419  and  _420
REMARK  175  A    between atoms: _419  and  _422
REMARK  176  A    between atoms: _422  and  _423
REMARK  177  A    between atoms: _429  and  _431
REMARK  178  A    between atoms: _431  and  _432
REMARK  179  A    between atoms: _431  and  _434
REMARK  180  A    between atoms: _434  and  _435
REMARK  181  A    between atoms: _435  and  _436
REMARK  182  A    between atoms: _438  and  _440
REMARK  183  A    between atoms: _440  and  _441
REMARK  184  A    between atoms: _440  and  _443
REMARK  185  A    between atoms: _443  and  _444
REMARK  186  A    between atoms: _450  and  _452
REMARK  187  A    between atoms: _452  and  _453
REMARK  188  A    between atoms: _452  and  _455
REMARK  189  A    between atoms: _455  and  _456
REMARK  190  A    between atoms: _459  and  _461
REMARK  191  A    between atoms: _461  and  _462
REMARK  192  A    between atoms: _461  and  _464
REMARK  193  A    between atoms: _464  and  _465
REMARK  194  A    between atoms: _465  and  _466
REMARK  195  A    between atoms: _471  and  _473
REMARK  196  A    between atoms: _473  and  _474
REMARK  197  A    between atoms: _473  and  _476
REMARK  198  A    between atoms: _476  and  _477
REMARK  199  A    between atoms: _477  and  _478
REMARK  200  A    between atoms: _478  and  _479
REMARK  201  A    between atoms: _479  and  _480
REMARK  202  A    between atoms: _484  and  _486
REMARK  203  A    between atoms: _486  and  _487
REMARK  204  A    between atoms: _486  and  _489
REMARK  205  A    between atoms: _489  and  _490
REMARK  206  A    between atoms: _493  and  _495
REMARK  207  A    between atoms: _495  and  _496
REMARK  208  A    between atoms: _495  and  _498
REMARK  209  A    between atoms: _498  and  _499
REMARK  210  A    between atoms: _504  and  _506
REMARK  211  A    between atoms: _506  and  _507
REMARK  212  A    between atoms: _506  and  _509
REMARK  213  A    between atoms: _509  and  _510
REMARK  214  A    between atoms: _513  and  _515
REMARK  215  A    between atoms: _515  and  _516
REMARK  216  A    between atoms: _515  and  _518
REMARK  217  A    between atoms: _518  and  _519
REMARK  218  A    between atoms: _519  and  _520
REMARK  219  A    between atoms: _520  and  _521
REMARK  220  A    between atoms: _530  and  _532
REMARK  221  A    between atoms: _532  and  _533
REMARK  222  A    between atoms: _532  and  _535
REMARK  223  A    between atoms: _535  and  _536
REMARK  224  A    between atoms: _539  and  _541
REMARK  225  A    between atoms: _541  and  _542
REMARK  226  A    between atoms: _541  and  _544
REMARK  227  A    between atoms: _544  and  _545
REMARK  228  A    between atoms: _545  and  _546
REMARK  229  A    between atoms: _549  and  _551
REMARK  230  A    between atoms: _551  and  _552
REMARK  231  A    between atoms: _551  and  _554
REMARK  232  A    between atoms: _554  and  _555
REMARK  233  A    between atoms: _561  and  _563
REMARK  234  A    between atoms: _563  and  _564
REMARK  235  A    between atoms: _563  and  _566
REMARK  236  A    between atoms: _566  and  _567
REMARK  237  A    between atoms: _571  and  _572
REMARK  238  A    between atoms: _577  and  _579
REMARK  239  A    between atoms: _579  and  _580
REMARK  240  A    between atoms: _579  and  _582
REMARK  241  A    between atoms: _582  and  _583
REMARK  242  A    between atoms: _583  and  _584
REMARK  243  A    between atoms: _589  and  _591
REMARK  244  A    between atoms: _591  and  _592
REMARK  245  A    between atoms: _591  and  _594
REMARK  246  A    between atoms: _597  and  _599
REMARK  247  A    between atoms: _599  and  _600
REMARK  248  A    between atoms: _599  and  _602
REMARK  249  A    between atoms: _602  and  _603
REMARK  250  A    between atoms: _603  and  _604
REMARK  251  A    between atoms: _606  and  _608
REMARK  252  A    between atoms: _608  and  _609
REMARK  253  A    between atoms: _612  and  _614
REMARK  254  A    between atoms: _614  and  _615
REMARK  255  A    between atoms: _614  and  _617
REMARK  256  A    between atoms: _617  and  _618
REMARK  257  A    between atoms: _621  and  _623
REMARK  258  A    between atoms: _623  and  _624
REMARK  259  A    between atoms: _627  and  _629
REMARK  260  A    between atoms: _629  and  _630
REMARK  261  A    between atoms: _629  and  _632
REMARK  262  A    between atoms: _632  and  _633
REMARK  263  A    between atoms: _636  and  _638
REMARK  264  A    between atoms: _638  and  _639
REMARK  265  A    between atoms: _638  and  _641
REMARK  266  A    between atoms: _641  and  _642
REMARK  267  A    between atoms: _645  and  _647
REMARK  268  A    between atoms: _647  and  _648
REMARK  269  A    between atoms: _647  and  _650
REMARK  270  A    between atoms: _650  and  _651
REMARK  271  A    between atoms: _654  and  _656
REMARK  272  A    between atoms: _656  and  _657
REMARK  273  A    between atoms: _656  and  _659
REMARK  274  A    between atoms: _659  and  _660
REMARK  275  A    between atoms: _660  and  _661
REMARK  276  A    between atoms: _666  and  _668
REMARK  277  A    between atoms: _668  and  _669
REMARK  278  A    between atoms: _672  and  _674
REMARK  279  A    between atoms: _674  and  _675
REMARK  280  A    between atoms: _674  and  _677
REMARK  281  A    between atoms: _680  and  _682
REMARK  282  A    between atoms: _682  and  _683
REMARK  283  A    between atoms: _682  and  _685
REMARK  284  A    between atoms: _685  and  _686
REMARK  285  A    between atoms: _689  and  _691
REMARK  286  A    between atoms: _691  and  _692
REMARK  287  A    between atoms: _691  and  _694
REMARK  288  A    between atoms: _694  and  _695
REMARK  289  A    between atoms: _695  and  _696
REMARK                            x       y       z     vdW  Elec       q    Type
REMARK                         _______ _______ _______ _____ _____    ______ ____
ROOT
ATOM      1  CA  ILE A   1      17.168  44.630  59.430  0.00  0.00    +0.133 C 
ENDROOT
BRANCH   1   2
ATOM      2  N   ILE A   1      17.313  45.317  60.711  0.00  0.00    -0.239 NA
ATOM      3  H   ILE A   1      17.732  46.269  60.721  0.00  0.00    +0.142 HD
ENDBRANCH   1   2
BRANCH   1   4
ATOM      4  C   ILE A   1      18.073  43.398  59.488  0.00  0.00    +0.224 C 
ATOM      5  O   ILE A   1      19.296  43.516  59.381  0.00  0.00    -0.287 OA
ENDBRANCH   1   4
BRANCH   1   6
ATOM      6  CB  ILE A   1      17.524  45.561  58.243  0.00  0.00    +0.023 C 
ATOM      7  CG2 ILE A   1      17.454  44.831  56.908  0.00  0.00    +0.002 C 
BRANCH   6   8
ATOM      8  CG1 ILE A   1      16.604  46.785  58.211  0.00  0.00    +0.002 C 
ATOM      9  CD1 ILE A   1      17.197  48.036  58.845  0.00  0.00    +0.000 C 
ENDBRANCH   6   8
ENDBRANCH   1   6
TORSDOF 4
REMARK  Name = ../refined-set-2016/3vjc/3vjc_pocket.pdb
REMARK  289 active torsions:
REMARK  status: ('A' for Active; 'I' for Inactive)
REMARK    1  A    between atoms: _1  and  _3
REMARK    2  A    between atoms: _3  and  _4
REMARK    3  A    between atoms: _3  and  _6
REMARK    4  A    between atoms: _6  and  _7
REMARK    5  A    between atoms: _10  and  _12
REMARK    6  A    between atoms: _12  and  _13
REMARK    7  A    between atoms: _12  and  _15
REMARK    8  A    between atoms: _15  and  _16
REMARK    9  A    between atoms: _21  and  _23
REMARK   10  A    between atoms: _23  and  _24
REMARK   11  A    between atoms: _23  and  _26
REMARK   12  A    between atoms: _26  and  _27
REMARK   13  A    between atoms: _27  and  _28
REMARK   14  A    between atoms: _33  and  _35
REMARK   15  A    between atoms: _35  and  _36
REMARK   16  A    between atoms: _35  and  _38
REMARK   17  A    between atoms: _38  and  _39
REMARK   18  A    between atoms: _42  and  _44
REMARK   19  A    between atoms: _44  and  _45
REMARK   20  A    between atoms: _44  and  _47
REMARK   21  A    between atoms: _47  and  _48
REMARK   22  A    between atoms: _50  and  _52
REMARK   23  A    between atoms: _52  and  _53
REMARK   24  A    between atoms: _52  and  _55
REMARK   25  A    between atoms: _55  and  _56
REMARK   26  A    between atoms: _56  and  _57
REMARK   27  A    between atoms: _57  and  _58
REMARK   28  A    between atoms: _67  and  _69
REMARK   29  A    between atoms: _69  and  _70
REMARK   30  A    between atoms: _69  and  _72
REMARK   31  A    between atoms: _72  and  _73
REMARK   32  A    between atoms: _75  and  _77
REMARK   33  A    between atoms: _77  and  _78
REMARK   34  A    between atoms: _77  and  _80
REMARK   35  A    between atoms: _80  and  _81
REMARK   36  A    between atoms: _87  and  _89
REMARK   37  A    between atoms: _89  and  _90
REMARK   38  A    between atoms: _93  and  _95
REMARK   39  A    between atoms: _95  and  _96
REMARK   40  A    between atoms: _99  and  _101
REMARK   41  A    between atoms: _101  and  _102
REMARK   42  A    between atoms: _101  and  _104
REMARK   43  A    between atoms: _107  and  _109
REMARK   44  A    between atoms: _109  and  _110
REMARK   45  A    between atoms: _109  and  _112
REMARK   46  A    between atoms: _112  and  _113
REMARK   47  A    between atoms: _116  and  _118
REMARK   48  A    between atoms: _118  and  _119
REMARK   49  A    between atoms: _118  and  _121
REMARK   50  A    between atoms: _121  and  _122
REMARK   51  A    between atoms: _125  and  _127
REMARK   52  A    between atoms: _127  and  _128
REMARK   53  A    between atoms: _131  and  _133
REMARK   54  A    between atoms: _133  and  _134
REMARK   55  A    between atoms: _133  and  _136
REMARK   56  A    between atoms: _139  and  _141
REMARK   57  A    between atoms: _141  and  _142
REMARK   58  A    between atoms: _141  and  _144
REMARK   59  A    between atoms: _146  and  _148
REMARK   60  A    between atoms: _148  and  _149
REMARK   61  A    between atoms: _148  and  _151
REMARK   62  A    between atoms: _151  and  _152
REMARK   63  A    between atoms: _155  and  _157
REMARK   64  A    between atoms: _157  and  _158
REMARK   65  A    between atoms: _157  and  _160
REMARK   66  A    between atoms: _160  and  _161
REMARK   67  A    between atoms: _167  and  _169
REMARK   68  A    between atoms: _169  and  _170
REMARK   69  A    between atoms: _169  and  _172
REMARK   70  A    between atoms: _172  and  _173
REMARK   71  A    between atoms: _178  and  _179
REMARK   72  A    between atoms: _181  and  _183
REMARK   73  A    between atoms: _183  and  _184
REMARK   74  A    between atoms: _183  and  _186
REMARK   75  A    between atoms: _186  and  _187
REMARK   76  A    between atoms: _190  and  _192
REMARK   77  A    between atoms: _192  and  _193
REMARK   78  A    between atoms: _192  and  _195
REMARK   79  A    between atoms: _198  and  _200
REMARK   80  A    between atoms: _200  and  _201
REMARK   81  A    between atoms: _200  and  _203
REMARK   82  A    between atoms: _203  and  _204
REMARK   83  A    between atoms: _207  and  _209
REMARK   84  A    between atoms: _209  and  _210
REMARK   85  A    between atoms: _209  and  _212
REMARK   86  A    between atoms: _212  and  _213
REMARK   87  A    between atoms: _213  and  _214
REMARK   88  A    between atoms: _214  and  _215
REMARK   89  A    between atoms: _224  and  _226
REMARK   90  A    between atoms: _226  and  _227
REMARK   91  A    between atoms: _230  and  _232
REMARK   92  A    between atoms: _232  and  _233
REMARK   93  A    between atoms: _232  and  _235
REMARK   94  A    between atoms: _235  and  _236
REMARK   95  A    between atoms: _239  and  _241
REMARK   96  A    between atoms: _241  and  _242
REMARK   97  A    between atoms: _241  and  _244
REMARK   98  A    between atoms: _244  and  _245
REMARK   99  A    between atoms: _248  and  _250
REMARK  100  A    between atoms: _250  and  _251
REMARK  101  A    between atoms: _250  and  _253
REMARK  102  A    between atoms: _253  and  _254
REMARK  103  A    between atoms: _257  and  _259
REMARK  104  A    between atoms: _259  and  _260
REMARK  105  A    between atoms: _259  and  _262
REMARK  106  A    between atoms: _262  and  _263
REMARK  107  A    between atoms: _263  and  _264
REMARK  108  A    between atoms: _267  and  _269
REMARK  109  A    between atoms: _269  and  _270
REMARK  110  A    between atoms: _269  and  _272
REMARK  111  A    between atoms: _272  and  _273
REMARK  112  A    between atoms: _276  and  _278
REMARK  113  A    between atoms: _278  and  _279
REMARK  114  A    between atoms: _278  and  _281
REMARK  115  A    between atoms: _281  and  _282
REMARK  116  A    between atoms: _282  and  _283
REMARK  117  A    between atoms: _283  and  _284
REMARK  118  A    between atoms: _284  and  _285
REMARK  119  A    between atoms: _289  and  _291
REMARK  120  A    between atoms: _291  and  _292
REMARK  121  A    between atoms: _291  and  _294
REMARK  122  A    between atoms: _294  and  _295
REMARK  123  A    between atoms: _298  and  _300
REMARK  124  A    between atoms: _300  and  _301
REMARK  125  A    between atoms: _300  and  _303
REMARK  126  A    between atoms: _303  and  _304
REMARK  127  A    between atoms: _307  and  _309
REMARK  128  A    between atoms: _309  and  _310
REMARK  129  A    between atoms: _309  and  _312
REMARK  130  A    between atoms: _312  and  _313
REMARK  131  A    between atoms: _313  and  _314
REMARK  132  A    between atoms: _316  and  _318
REMARK  133  A    between atoms: _318  and  _319
REMARK  134  A    between atoms: _318  and  _321
REMARK  135  A    between atoms: _321  and  _322
REMARK  136  A    between atoms: _322  and  _323
REMARK  137  A    between atoms: _325  and  _327
REMARK  138  A    between atoms: _327  and  _328
REMARK  139  A    between atoms: _327  and  _330
REMARK  140  A    between atoms: _330  and  _331
REMARK  141  A    between atoms: _336  and  _337
REMARK  142  A    between atoms: _339  and  _341
REMARK  143  A    between atoms: _341  and  _342
REMARK  144  A    between atoms: _341  and  _344
REMARK  145  A    between atoms: _344  and  _345
REMARK  146  A    between atoms: _350  and  _351
REMARK  147  A    between atoms: _353  and  _355
REMARK  148  A    between atoms: _355  and  _356
REMARK  149  A    between atoms: _355  and  _358
REMARK  150  A    between atoms: _361  and  _363
REMARK  151  A    between atoms: _363  and  _364
REMARK  152  A    between atoms: _367  and  _369
REMARK  153  A    between atoms: _369  and  _370
REMARK  154  A    between atoms: _372  and  _374
REMARK  155  A    between atoms: _374  and  _375
REMARK  156  A    between atoms: _374  and  _377
REMARK  157  A    between atoms: _377  and  _378
REMARK  158  A    between atoms: _381  and  _383
REMARK  159  A    between atoms: _383  and  _384
REMARK  160  A    between atoms: _383  and  _386
REMARK  161  A    between atoms: _389  and  _391
REMARK  162  A    between atoms: _391  and  _392
REMARK  163  A    between atoms: _394  and  _396
REMARK  164  A    between atoms: _396  and  _397
REMARK  165  A    between atoms: _399  and  _401
REMARK  166  A    between atoms: _401  and  _402
REMARK  167  A    between atoms: _401  and  _404
REMARK  168  A    between atoms: _404  and  _405
REMARK  169  A    between atoms: _408  and  _410
REMARK  170  A    between atoms: _410  and  _411
REMARK  171  A    between atoms: _410  and  _413
REMARK  172  A    between atoms: _413  and  _414
REMARK  173  A    between atoms: _417  and  _419
REMARK  174  A    between atoms: _419  and  _420
REMARK  175  A    between atoms: _419  and  _422
REMARK  176  A    between atoms: _422  and  _423
REMARK  177  A    between atoms: _429  and  _431
REMARK  178  A    between atoms: _431  and  _432
REMARK  179  A    between atoms: _431  and  _434
REMARK  180  A    between atoms: _434  and  _435
REMARK  181  A    between atoms: _435  and  _436
REMARK  182  A    between atoms: _438  and  _440
REMARK  183  A    between atoms: _440  and  _441
REMARK  184  A    between atoms: _440  and  _443
REMARK  185  A    between atoms: _443  and  _444
REMARK  186  A    between atoms: _450  and  _452
REMARK  187  A    between atoms: _452  and  _453
REMARK  188  A    between atoms: _452  and  _455
REMARK  189  A    between atoms: _455  and  _456
REMARK  190  A    between atoms: _459  and  _461
REMARK  191  A    between atoms: _461  and  _462
REMARK  192  A    between atoms: _461  and  _464
REMARK  193  A    between atoms: _464  and  _465
REMARK  194  A    between atoms: _465  and  _466
REMARK  195  A    between atoms: _471  and  _473
REMARK  196  A    between atoms: _473  and  _474
REMARK  197  A    between atoms: _473  and  _476
REMARK  198  A    between atoms: _476  and  _477
REMARK  199  A    between atoms: _477  and  _478
REMARK  200  A    between atoms: _478  and  _479
REMARK  201  A    between atoms: _479  and  _480
REMARK  202  A    between atoms: _484  and  _486
REMARK  203  A    between atoms: _486  and  _487
REMARK  204  A    between atoms: _486  and  _489
REMARK  205  A    between atoms: _489  and  _490
REMARK  206  A    between atoms: _493  and  _495
REMARK  207  A    between atoms: _495  and  _496
REMARK  208  A    between atoms: _495  and  _498
REMARK  209  A    between atoms: _498  and  _499
REMARK  210  A    between atoms: _504  and  _506
REMARK  211  A    between atoms: _506  and  _507
REMARK  212  A    between atoms: _506  and  _509
REMARK  213  A    between atoms: _509  and  _510
REMARK  214  A    between atoms: _513  and  _515
REMARK  215  A    between atoms: _515  and  _516
REMARK  216  A    between atoms: _515  and  _518
REMARK  217  A    between atoms: _518  and  _519
REMARK  218  A    between atoms: _519  and  _520
REMARK  219  A    between atoms: _520  and  _521
REMARK  220  A    between atoms: _530  and  _532
REMARK  221  A    between atoms: _532  and  _533
REMARK  222  A    between atoms: _532  and  _535
REMARK  223  A    between atoms: _535  and  _536
REMARK  224  A    between atoms: _539  and  _541
REMARK  225  A    between atoms: _541  and  _542
REMARK  226  A    between atoms: _541  and  _544
REMARK  227  A    between atoms: _544  and  _545
REMARK  228  A    between atoms: _545  and  _546
REMARK  229  A    between atoms: _549  and  _551
REMARK  230  A    between atoms: _551  and  _552
REMARK  231  A    between atoms: _551  and  _554
REMARK  232  A    between atoms: _554  and  _555
REMARK  233  A    between atoms: _561  and  _563
REMARK  234  A    between atoms: _563  and  _564
REMARK  235  A    between atoms: _563  and  _566
REMARK  236  A    between atoms: _566  and  _567
REMARK  237  A    between atoms: _571  and  _572
REMARK  238  A    between atoms: _577  and  _579
REMARK  239  A    between atoms: _579  and  _580
REMARK  240  A    between atoms: _579  and  _582
REMARK  241  A    between atoms: _582  and  _583
REMARK  242  A    between atoms: _583  and  _584
REMARK  243  A    between atoms: _589  and  _591
REMARK  244  A    between atoms: _591  and  _592
REMARK  245  A    between atoms: _591  and  _594
REMARK  246  A    between atoms: _597  and  _599
REMARK  247  A    between atoms: _599  and  _600
REMARK  248  A    between atoms: _599  and  _602
REMARK  249  A    between atoms: _602  and  _603
REMARK  250  A    between atoms: _603  and  _604
REMARK  251  A    between atoms: _606  and  _608
REMARK  252  A    between atoms: _608  and  _609
REMARK  253  A    between atoms: _612  and  _614
REMARK  254  A    between atoms: _614  and  _615
REMARK  255  A    between atoms: _614  and  _617
REMARK  256  A    between atoms: _617  and  _618
REMARK  257  A    between atoms: _621  and  _623
REMARK  258  A    between atoms: _623  and  _624
REMARK  259  A    between atoms: _627  and  _629
REMARK  260  A    between atoms: _629  and  _630
REMARK  261  A    between atoms: _629  and  _632
REMARK  262  A    between atoms: _632  and  _633
REMARK  263  A    between atoms: _636  and  _638
REMARK  264  A    between atoms: _638  and  _639
REMARK  265  A    between atoms: _638  and  _641
REMARK  266  A    between atoms: _641  and  _642
REMARK  267  A    between atoms: _645  and  _647
REMARK  268  A    between atoms: _647  and  _648
REMARK  269  A    between atoms: _647  and  _650
REMARK  270  A    between atoms: _650  and  _651
REMARK  271  A    between atoms: _654  and  _656
REMARK  272  A    between atoms: _656  and  _657
REMARK  273  A    between atoms: _656  and  _659
REMARK  274  A    between atoms: _659  and  _660
REMARK  275  A    between atoms: _660  and  _661
REMARK  276  A    between atoms: _666  and  _668
REMARK  277  A    between atoms: _668  and  _669
REMARK  278  A    between atoms: _672  and  _674
REMARK  279  A    between atoms: _674  and  _675
REMARK  280  A    between atoms: _674  and  _677
REMARK  281  A    between atoms: _680  and  _682
REMARK  282  A    between atoms: _682  and  _683
REMARK  283  A    between atoms: _682  and  _685
REMARK  284  A    between atoms: _685  and  _686
REMARK  285  A    between atoms: _689  and  _691
REMARK  286  A    between atoms: _691  and  _692
REMARK  287  A    between atoms: _691  and  _694
REMARK  288  A    between atoms: _694  and  _695
REMARK  289  A    between atoms: _695  and  _696
REMARK                            x       y       z     vdW  Elec       q    Type
REMARK                         _______ _______ _______ _____ _____    ______ ____
ROOT
ATOM      1  C   ALA A   2      24.055  48.958  53.084  0.00  0.00    +0.241 C 
ATOM      2  O   ALA A   2      23.795  47.890  52.523  0.00  0.00    -0.273 OA
ATOM      3  N   VAL A   3      24.169  50.111  52.431  0.00  0.00    -0.297 N 
ATOM      4  H   VAL A   3      24.458  50.963  52.953  0.00  0.00    +0.150 HD
ENDROOT
BRANCH   1   5
ATOM      5  CA  ALA A   2      24.276  48.998  54.594  0.00  0.00    +0.149 C 
ATOM      6  CB  ALA A   2      23.005  49.456  55.307  0.00  0.00    +0.031 C 
BRANCH   5   8
ATOM      7  C   GLN A   1      26.632  49.693  54.480  0.00  0.00    +0.238 C 
ATOM      8  N   ALA A   2      25.429  49.781  55.040  0.00  0.00    -0.297 N 
ATOM      9  H   ALA A   2      25.301  50.439  55.835  0.00  0.00    +0.150 HD
ATOM     10  O   GLN A   1      26.841  49.145  53.394  0.00  0.00    -0.274 OA
BRANCH   7  11
ATOM     11  CA  GLN A   1      27.781  50.329  55.258  0.00  0.00    +0.145 C 
BRANCH  11  12
ATOM     12  N   GLN A   1      28.987  49.504  55.146  0.00  0.00    -0.238 NA
ATOM     13  H   GLN A   1      29.814  49.899  54.655  0.00  0.00    +0.142 HD
ENDBRANCH  11  12
BRANCH  11  14
ATOM     14  CB  GLN A   1      28.040  51.750  54.752  0.00  0.00    +0.036 C 
BRANCH  14  15
ATOM     15  CG  GLN A   1      27.589  52.865  55.698  0.00  0.00    +0.087 C 
BRANCH  15  16
ATOM     16  CD  GLN A   1      26.265  53.535  55.342  0.00  0.00    +0.219 C 
ATOM     17  NE2 GLN A   1      25.818  54.427  56.222  0.00  0.00    -0.329 N 
ATOM     18 HE21 GLN A   1      26.364  54.625  57.085  0.00  0.00    +0.145 HD
ATOM     19 HE22 GLN A   1      24.923  54.926  56.047  0.00  0.00    +0.145 HD
ATOM     20  OE1 GLN A   1      25.651  53.267  54.304  0.00  0.00    -0.275 OA
ENDBRANCH  15  16
ENDBRANCH  14  15
ENDBRANCH  11  14
ENDBRANCH   7  11
ENDBRANCH   5   8
ENDBRANCH   1   5
BRANCH   3  21
ATOM     21  CA  VAL A   3      23.898  50.210  50.995  0.00  0.00    +0.149 C 
BRANCH  21  22
ATOM     22  C   VAL A   3      24.816  49.308  50.166  0.00  0.00    +0.241 C 
ATOM     23  N   THR A   4      26.075  49.181  50.574  0.00  0.00    -0.296 N 
ATOM     24  H   THR A   4      26.378  49.692  51.428  0.00  0.00    +0.150 HD
ATOM     25  O   VAL A   3      24.374  48.699  49.194  0.00  0.00    -0.273 OA
BRANCH  23  26
ATOM     26  CA  THR A   4      27.054  48.348  49.866  0.00  0.00    +0.164 C 
BRANCH  26  27
ATOM     27  CB  THR A   4      28.498  48.707  50.275  0.00  0.00    +0.136 C 
ATOM     28  CG2 THR A   4      28.742  50.214  50.143  0.00  0.00    +0.034 C 
BRANCH  27  29
ATOM     29  OG1 THR A   4      28.720  48.279  51.625  0.00  0.00    -0.382 OA
ATOM     30  HG1 THR A   4      28.079  48.737  52.225  0.00  0.00    +0.210 HD
ENDBRANCH  27  29
ENDBRANCH  26  27
BRANCH  26  31
ATOM     31  C   THR A   4      26.909  46.839  50.079  0.00  0.00    +0.229 C 
ATOM     32  O   THR A   4      27.457  46.056  49.302  0.00  0.00    -0.286 OA
ENDBRANCH  26  31
ENDBRANCH  23  26
ENDBRANCH  21  22
BRANCH  21  33
ATOM     33  CB  VAL A   3      23.911  51.678  50.501  0.00  0.00    +0.027 C 
ATOM     34  CG2 VAL A   3      23.046  52.529  51.410  0.00  0.00    +0.002 C 
ATOM     35  CG1 VAL A   3      23.372  51.791  49.081  0.00  0.00    +0.002 C 
ENDBRANCH  21  33
ENDBRANCH   3  21
TORSDOF 14
REMARK  Name = ../refined-set-2016/3vjc/3vjc_pocket.pdb
REMARK  289 active torsions:
REMARK  status: ('A' for Active; 'I' for Inactive)
REMARK    1  A    between atoms: _1  and  _3
REMARK    2  A    between atoms: _3  and  _4
REMARK    3  A    between atoms: _3  and  _6
REMARK    4  A    between atoms: _6  and  _7
REMARK    5  A    between atoms: _10  and  _12
REMARK    6  A    between atoms: _12  and  _13
REMARK    7  A    between atoms: _12  and  _15
REMARK    8  A    between atoms: _15  and  _16
REMARK    9  A    between atoms: _21  and  _23
REMARK   10  A    between atoms: _23  and  _24
REMARK   11  A    between atoms: _23  and  _26
REMARK   12  A    between atoms: _26  and  _27
REMARK   13  A    between atoms: _27  and  _28
REMARK   14  A    between atoms: _33  and  _35
REMARK   15  A    between atoms: _35  and  _36
REMARK   16  A    between atoms: _35  and  _38
REMARK   17  A    between atoms: _38  and  _39
REMARK   18  A    between atoms: _42  and  _44
REMARK   19  A    between atoms: _44  and  _45
REMARK   20  A    between atoms: _44  and  _47
REMARK   21  A    between atoms: _47  and  _48
REMARK   22  A    between atoms: _50  and  _52
REMARK   23  A    between atoms: _52  and  _53
REMARK   24  A    between atoms: _52  and  _55
REMARK   25  A    between atoms: _55  and  _56
REMARK   26  A    between atoms: _56  and  _57
REMARK   27  A    between atoms: _57  and  _58
REMARK   28  A    between atoms: _67  and  _69
REMARK   29  A    between atoms: _69  and  _70
REMARK   30  A    between atoms: _69  and  _72
REMARK   31  A    between atoms: _72  and  _73
REMARK   32  A    between atoms: _75  and  _77
REMARK   33  A    between atoms: _77  and  _78
REMARK   34  A    between atoms: _77  and  _80
REMARK   35  A    between atoms: _80  and  _81
REMARK   36  A    between atoms: _87  and  _89
REMARK   37  A    between atoms: _89  and  _90
REMARK   38  A    between atoms: _93  and  _95
REMARK   39  A    between atoms: _95  and  _96
REMARK   40  A    between atoms: _99  and  _101
REMARK   41  A    between atoms: _101  and  _102
REMARK   42  A    between atoms: _101  and  _104
REMARK   43  A    between atoms: _107  and  _109
REMARK   44  A    between atoms: _109  and  _110
REMARK   45  A    between atoms: _109  and  _112
REMARK   46  A    between atoms: _112  and  _113
REMARK   47  A    between atoms: _116  and  _118
REMARK   48  A    between atoms: _118  and  _119
REMARK   49  A    between atoms: _118  and  _121
REMARK   50  A    between atoms: _121  and  _122
REMARK   51  A    between atoms: _125  and  _127
REMARK   52  A    between atoms: _127  and  _128
REMARK   53  A    between atoms: _131  and  _133
REMARK   54  A    between atoms: _133  and  _134
REMARK   55  A    between atoms: _133  and  _136
REMARK   56  A    between atoms: _139  and  _141
REMARK   57  A    between atoms: _141  and  _142
REMARK   58  A    between atoms: _141  and  _144
REMARK   59  A    between atoms: _146  and  _148
REMARK   60  A    between atoms: _148  and  _149
REMARK   61  A    between atoms: _148  and  _151
REMARK   62  A    between atoms: _151  and  _152
REMARK   63  A    between atoms: _155  and  _157
REMARK   64  A    between atoms: _157  and  _158
REMARK   65  A    between atoms: _157  and  _160
REMARK   66  A    between atoms: _160  and  _161
REMARK   67  A    between atoms: _167  and  _169
REMARK   68  A    between atoms: _169  and  _170
REMARK   69  A    between atoms: _169  and  _172
REMARK   70  A    between atoms: _172  and  _173
REMARK   71  A    between atoms: _178  and  _179
REMARK   72  A    between atoms: _181  and  _183
REMARK   73  A    between atoms: _183  and  _184
REMARK   74  A    between atoms: _183  and  _186
REMARK   75  A    between atoms: _186  and  _187
REMARK   76  A    between atoms: _190  and  _192
REMARK   77  A    between atoms: _192  and  _193
REMARK   78  A    between atoms: _192  and  _195
REMARK   79  A    between atoms: _198  and  _200
REMARK   80  A    between atoms: _200  and  _201
REMARK   81  A    between atoms: _200  and  _203
REMARK   82  A    between atoms: _203  and  _204
REMARK   83  A    between atoms: _207  and  _209
REMARK   84  A    between atoms: _209  and  _210
REMARK   85  A    between atoms: _209  and  _212
REMARK   86  A    between atoms: _212  and  _213
REMARK   87  A    between atoms: _213  and  _214
REMARK   88  A    between atoms: _214  and  _215
REMARK   89  A    between atoms: _224  and  _226
REMARK   90  A    between atoms: _226  and  _227
REMARK   91  A    between atoms: _230  and  _232
REMARK   92  A    between atoms: _232  and  _233
REMARK   93  A    between atoms: _232  and  _235
REMARK   94  A    between atoms: _235  and  _236
REMARK   95  A    between atoms: _239  and  _241
REMARK   96  A    between atoms: _241  and  _242
REMARK   97  A    between atoms: _241  and  _244
REMARK   98  A    between atoms: _244  and  _245
REMARK   99  A    between atoms: _248  and  _250
REMARK  100  A    between atoms: _250  and  _251
REMARK  101  A    between atoms: _250  and  _253
REMARK  102  A    between atoms: _253  and  _254
REMARK  103  A    between atoms: _257  and  _259
REMARK  104  A    between atoms: _259  and  _260
REMARK  105  A    between atoms: _259  and  _262
REMARK  106  A    between atoms: _262  and  _263
REMARK  107  A    between atoms: _263  and  _264
REMARK  108  A    between atoms: _267  and  _269
REMARK  109  A    between atoms: _269  and  _270
REMARK  110  A    between atoms: _269  and  _272
REMARK  111  A    between atoms: _272  and  _273
REMARK  112  A    between atoms: _276  and  _278
REMARK  113  A    between atoms: _278  and  _279
REMARK  114  A    between atoms: _278  and  _281
REMARK  115  A    between atoms: _281  and  _282
REMARK  116  A    between atoms: _282  and  _283
REMARK  117  A    between atoms: _283  and  _284
REMARK  118  A    between atoms: _284  and  _285
REMARK  119  A    between atoms: _289  and  _291
REMARK  120  A    between atoms: _291  and  _292
REMARK  121  A    between atoms: _291  and  _294
REMARK  122  A    between atoms: _294  and  _295
REMARK  123  A    between atoms: _298  and  _300
REMARK  124  A    between atoms: _300  and  _301
REMARK  125  A    between atoms: _300  and  _303
REMARK  126  A    between atoms: _303  and  _304
REMARK  127  A    between atoms: _307  and  _309
REMARK  128  A    between atoms: _309  and  _310
REMARK  129  A    between atoms: _309  and  _312
REMARK  130  A    between atoms: _312  and  _313
REMARK  131  A    between atoms: _313  and  _314
REMARK  132  A    between atoms: _316  and  _318
REMARK  133  A    between atoms: _318  and  _319
REMARK  134  A    between atoms: _318  and  _321
REMARK  135  A    between atoms: _321  and  _322
REMARK  136  A    between atoms: _322  and  _323
REMARK  137  A    between atoms: _325  and  _327
REMARK  138  A    between atoms: _327  and  _328
REMARK  139  A    between atoms: _327  and  _330
REMARK  140  A    between atoms: _330  and  _331
REMARK  141  A    between atoms: _336  and  _337
REMARK  142  A    between atoms: _339  and  _341
REMARK  143  A    between atoms: _341  and  _342
REMARK  144  A    between atoms: _341  and  _344
REMARK  145  A    between atoms: _344  and  _345
REMARK  146  A    between atoms: _350  and  _351
REMARK  147  A    between atoms: _353  and  _355
REMARK  148  A    between atoms: _355  and  _356
REMARK  149  A    between atoms: _355  and  _358
REMARK  150  A    between atoms: _361  and  _363
REMARK  151  A    between atoms: _363  and  _364
REMARK  152  A    between atoms: _367  and  _369
REMARK  153  A    between atoms: _369  and  _370
REMARK  154  A    between atoms: _372  and  _374
REMARK  155  A    between atoms: _374  and  _375
REMARK  156  A    between atoms: _374  and  _377
REMARK  157  A    between atoms: _377  and  _378
REMARK  158  A    between atoms: _381  and  _383
REMARK  159  A    between atoms: _383  and  _384
REMARK  160  A    between atoms: _383  and  _386
REMARK  161  A    between atoms: _389  and  _391
REMARK  162  A    between atoms: _391  and  _392
REMARK  163  A    between atoms: _394  and  _396
REMARK  164  A    between atoms: _396  and  _397
REMARK  165  A    between atoms: _399  and  _401
REMARK  166  A    between atoms: _401  and  _402
REMARK  167  A    between atoms: _401  and  _404
REMARK  168  A    between atoms: _404  and  _405
REMARK  169  A    between atoms: _408  and  _410
REMARK  170  A    between atoms: _410  and  _411
REMARK  171  A    between atoms: _410  and  _413
REMARK  172  A    between atoms: _413  and  _414
REMARK  173  A    between atoms: _417  and  _419
REMARK  174  A    between atoms: _419  and  _420
REMARK  175  A    between atoms: _419  and  _422
REMARK  176  A    between atoms: _422  and  _423
REMARK  177  A    between atoms: _429  and  _431
REMARK  178  A    between atoms: _431  and  _432
REMARK  179  A    between atoms: _431  and  _434
REMARK  180  A    between atoms: _434  and  _435
REMARK  181  A    between atoms: _435  and  _436
REMARK  182  A    between atoms: _438  and  _440
REMARK  183  A    between atoms: _440  and  _441
REMARK  184  A    between atoms: _440  and  _443
REMARK  185  A    between atoms: _443  and  _444
REMARK  186  A    between atoms: _450  and  _452
REMARK  187  A    between atoms: _452  and  _453
REMARK  188  A    between atoms: _452  and  _455
REMARK  189  A    between atoms: _455  and  _456
REMARK  190  A    between atoms: _459  and  _461
REMARK  191  A    between atoms: _461  and  _462
REMARK  192  A    between atoms: _461  and  _464
REMARK  193  A    between atoms: _464  and  _465
REMARK  194  A    between atoms: _465  and  _466
REMARK  195  A    between atoms: _471  and  _473
REMARK  196  A    between atoms: _473  and  _474
REMARK  197  A    between atoms: _473  and  _476
REMARK  198  A    between atoms: _476  and  _477
REMARK  199  A    between atoms: _477  and  _478
REMARK  200  A    between atoms: _478  and  _479
REMARK  201  A    between atoms: _479  and  _480
REMARK  202  A    between atoms: _484  and  _486
REMARK  203  A    between atoms: _486  and  _487
REMARK  204  A    between atoms: _486  and  _489
REMARK  205  A    between atoms: _489  and  _490
REMARK  206  A    between atoms: _493  and  _495
REMARK  207  A    between atoms: _495  and  _496
REMARK  208  A    between atoms: _495  and  _498
REMARK  209  A    between atoms: _498  and  _499
REMARK  210  A    between atoms: _504  and  _506
REMARK  211  A    between atoms: _506  and  _507
REMARK  212  A    between atoms: _506  and  _509
REMARK  213  A    between atoms: _509  and  _510
REMARK  214  A    between atoms: _513  and  _515
REMARK  215  A    between atoms: _515  and  _516
REMARK  216  A    between atoms: _515  and  _518
REMARK  217  A    between atoms: _518  and  _519
REMARK  218  A    between atoms: _519  and  _520
REMARK  219  A    between atoms: _520  and  _521
REMARK  220  A    between atoms: _530  and  _532
REMARK  221  A    between atoms: _532  and  _533
REMARK  222  A    between atoms: _532  and  _535
REMARK  223  A    between atoms: _535  and  _536
REMARK  224  A    between atoms: _539  and  _541
REMARK  225  A    between atoms: _541  and  _542
REMARK  226  A    between atoms: _541  and  _544
REMARK  227  A    between atoms: _544  and  _545
REMARK  228  A    between atoms: _545  and  _546
REMARK  229  A    between atoms: _549  and  _551
REMARK  230  A    between atoms: _551  and  _552
REMARK  231  A    between atoms: _551  and  _554
REMARK  232  A    between atoms: _554  and  _555
REMARK  233  A    between atoms: _561  and  _563
REMARK  234  A    between atoms: _563  and  _564
REMARK  235  A    between atoms: _563  and  _566
REMARK  236  A    between atoms: _566  and  _567
REMARK  237  A    between atoms: _571  and  _572
REMARK  238  A    between atoms: _577  and  _579
REMARK  239  A    between atoms: _579  and  _580
REMARK  240  A    between atoms: _579  and  _582
REMARK  241  A    between atoms: _582  and  _583
REMARK  242  A    between atoms: _583  and  _584
REMARK  243  A    between atoms: _589  and  _591
REMARK  244  A    between atoms: _591  and  _592
REMARK  245  A    between atoms: _591  and  _594
REMARK  246  A    between atoms: _597  and  _599
REMARK  247  A    between atoms: _599  and  _600
REMARK  248  A    between atoms: _599  and  _602
REMARK  249  A    between atoms: _602  and  _603
REMARK  250  A    between atoms: _603  and  _604
REMARK  251  A    between atoms: _606  and  _608
REMARK  252  A    between atoms: _608  and  _609
REMARK  253  A    between atoms: _612  and  _614
REMARK  254  A    between atoms: _614  and  _615
REMARK  255  A    between atoms: _614  and  _617
REMARK  256  A    between atoms: _617  and  _618
REMARK  257  A    between atoms: _621  and  _623
REMARK  258  A    between atoms: _623  and  _624
REMARK  259  A    between atoms: _627  and  _629
REMARK  260  A    between atoms: _629  and  _630
REMARK  261  A    between atoms: _629  and  _632
REMARK  262  A    between atoms: _632  and  _633
REMARK  263  A    between atoms: _636  and  _638
REMARK  264  A    between atoms: _638  and  _639
REMARK  265  A    between atoms: _638  and  _641
REMARK  266  A    between atoms: _641  and  _642
REMARK  267  A    between atoms: _645  and  _647
REMARK  268  A    between atoms: _647  and  _648
REMARK  269  A    between atoms: _647  and  _650
REMARK  270  A    between atoms: _650  and  _651
REMARK  271  A    between atoms: _654  and  _656
REMARK  272  A    between atoms: _656  and  _657
REMARK  273  A    between atoms: _656  and  _659
REMARK  274  A    between atoms: _659  and  _660
REMARK  275  A    between atoms: _660  and  _661
REMARK  276  A    between atoms: _666  and  _668
REMARK  277  A    between atoms: _668  and  _669
REMARK  278  A    between atoms: _672  and  _674
REMARK  279  A    between atoms: _674  and  _675
REMARK  280  A    between atoms: _674  and  _677
REMARK  281  A    between atoms: _680  and  _682
REMARK  282  A    between atoms: _682  and  _683
REMARK  283  A    between atoms: _682  and  _685
REMARK  284  A    between atoms: _685  and  _686
REMARK  285  A    between atoms: _689  and  _691
REMARK  286  A    between atoms: _691  and  _692
REMARK  287  A    between atoms: _691  and  _694
REMARK  288  A    between atoms: _694  and  _695
REMARK  289  A    between atoms: _695  and  _696
REMARK                            x       y       z     vdW  Elec       q    Type
REMARK                         _______ _______ _______ _____ _____    ______ ____
ROOT
ATOM      1  CB  GLN A   1      30.706  53.211  50.606  0.00  0.00    +0.035 C 
ENDROOT
BRANCH   1   2
ATOM      2  CA  GLN A   1      31.670  54.397  50.505  0.00  0.00    +0.134 C 
BRANCH   2   3
ATOM      3  N   GLN A   1      32.088  54.624  49.126  0.00  0.00    -0.239 NA
ATOM      4  H   GLN A   1      31.821  53.938  48.392  0.00  0.00    +0.142 HD
ENDBRANCH   2   3
BRANCH   2   5
ATOM      5  C   GLN A   1      32.844  54.204  51.465  0.00  0.00    +0.224 C 
ATOM      6  O   GLN A   1      32.842  54.752  52.582  0.00  0.00    -0.287 OA
ENDBRANCH   2   5
ENDBRANCH   1   2
BRANCH   1   7
ATOM      7  CG  GLN A   1      30.232  52.980  52.045  0.00  0.00    +0.087 C 
BRANCH   7   8
ATOM      8  CD  GLN A   1      29.553  54.195  52.660  0.00  0.00    +0.219 C 
ATOM      9  OE1 GLN A   1      29.919  54.651  53.755  0.00  0.00    -0.275 OA
ATOM     10  NE2 GLN A   1      28.557  54.728  51.956  0.00  0.00    -0.329 N 
ATOM     11 HE21 GLN A   1      28.051  55.561  52.319  0.00  0.00    +0.145 HD
ATOM     12 HE22 GLN A   1      28.285  54.312  51.043  0.00  0.00    +0.145 HD
ENDBRANCH   7   8
ENDBRANCH   1   7
TORSDOF 5
REMARK  Name = ../refined-set-2016/3vjc/3vjc_pocket.pdb
REMARK  289 active torsions:
REMARK  status: ('A' for Active; 'I' for Inactive)
REMARK    1  A    between atoms: _1  and  _3
REMARK    2  A    between atoms: _3  and  _4
REMARK    3  A    between atoms: _3  and  _6
REMARK    4  A    between atoms: _6  and  _7
REMARK    5  A    between atoms: _10  and  _12
REMARK    6  A    between atoms: _12  and  _13
REMARK    7  A    between atoms: _12  and  _15
REMARK    8  A    between atoms: _15  and  _16
REMARK    9  A    between atoms: _21  and  _23
REMARK   10  A    between atoms: _23  and  _24
REMARK   11  A    between atoms: _23  and  _26
REMARK   12  A    between atoms: _26  and  _27
REMARK   13  A    between atoms: _27  and  _28
REMARK   14  A    between atoms: _33  and  _35
REMARK   15  A    between atoms: _35  and  _36
REMARK   16  A    between atoms: _35  and  _38
REMARK   17  A    between atoms: _38  and  _39
REMARK   18  A    between atoms: _42  and  _44
REMARK   19  A    between atoms: _44  and  _45
REMARK   20  A    between atoms: _44  and  _47
REMARK   21  A    between atoms: _47  and  _48
REMARK   22  A    between atoms: _50  and  _52
REMARK   23  A    between atoms: _52  and  _53
REMARK   24  A    between atoms: _52  and  _55
REMARK   25  A    between atoms: _55  and  _56
REMARK   26  A    between atoms: _56  and  _57
REMARK   27  A    between atoms: _57  and  _58
REMARK   28  A    between atoms: _67  and  _69
REMARK   29  A    between atoms: _69  and  _70
REMARK   30  A    between atoms: _69  and  _72
REMARK   31  A    between atoms: _72  and  _73
REMARK   32  A    between atoms: _75  and  _77
REMARK   33  A    between atoms: _77  and  _78
REMARK   34  A    between atoms: _77  and  _80
REMARK   35  A    between atoms: _80  and  _81
REMARK   36  A    between atoms: _87  and  _89
REMARK   37  A    between atoms: _89  and  _90
REMARK   38  A    between atoms: _93  and  _95
REMARK   39  A    between atoms: _95  and  _96
REMARK   40  A    between atoms: _99  and  _101
REMARK   41  A    between atoms: _101  and  _102
REMARK   42  A    between atoms: _101  and  _104
REMARK   43  A    between atoms: _107  and  _109
REMARK   44  A    between atoms: _109  and  _110
REMARK   45  A    between atoms: _109  and  _112
REMARK   46  A    between atoms: _112  and  _113
REMARK   47  A    between atoms: _116  and  _118
REMARK   48  A    between atoms: _118  and  _119
REMARK   49  A    between atoms: _118  and  _121
REMARK   50  A    between atoms: _121  and  _122
REMARK   51  A    between atoms: _125  and  _127
REMARK   52  A    between atoms: _127  and  _128
REMARK   53  A    between atoms: _131  and  _133
REMARK   54  A    between atoms: _133  and  _134
REMARK   55  A    between atoms: _133  and  _136
REMARK   56  A    between atoms: _139  and  _141
REMARK   57  A    between atoms: _141  and  _142
REMARK   58  A    between atoms: _141  and  _144
REMARK   59  A    between atoms: _146  and  _148
REMARK   60  A    between atoms: _148  and  _149
REMARK   61  A    between atoms: _148  and  _151
REMARK   62  A    between atoms: _151  and  _152
REMARK   63  A    between atoms: _155  and  _157
REMARK   64  A    between atoms: _157  and  _158
REMARK   65  A    between atoms: _157  and  _160
REMARK   66  A    between atoms: _160  and  _161
REMARK   67  A    between atoms: _167  and  _169
REMARK   68  A    between atoms: _169  and  _170
REMARK   69  A    between atoms: _169  and  _172
REMARK   70  A    between atoms: _172  and  _173
REMARK   71  A    between atoms: _178  and  _179
REMARK   72  A    between atoms: _181  and  _183
REMARK   73  A    between atoms: _183  and  _184
REMARK   74  A    between atoms: _183  and  _186
REMARK   75  A    between atoms: _186  and  _187
REMARK   76  A    between atoms: _190  and  _192
REMARK   77  A    between atoms: _192  and  _193
REMARK   78  A    between atoms: _192  and  _195
REMARK   79  A    between atoms: _198  and  _200
REMARK   80  A    between atoms: _200  and  _201
REMARK   81  A    between atoms: _200  and  _203
REMARK   82  A    between atoms: _203  and  _204
REMARK   83  A    between atoms: _207  and  _209
REMARK   84  A    between atoms: _209  and  _210
REMARK   85  A    between atoms: _209  and  _212
REMARK   86  A    between atoms: _212  and  _213
REMARK   87  A    between atoms: _213  and  _214
REMARK   88  A    between atoms: _214  and  _215
REMARK   89  A    between atoms: _224  and  _226
REMARK   90  A    between atoms: _226  and  _227
REMARK   91  A    between atoms: _230  and  _232
REMARK   92  A    between atoms: _232  and  _233
REMARK   93  A    between atoms: _232  and  _235
REMARK   94  A    between atoms: _235  and  _236
REMARK   95  A    between atoms: _239  and  _241
REMARK   96  A    between atoms: _241  and  _242
REMARK   97  A    between atoms: _241  and  _244
REMARK   98  A    between atoms: _244  and  _245
REMARK   99  A    between atoms: _248  and  _250
REMARK  100  A    between atoms: _250  and  _251
REMARK  101  A    between atoms: _250  and  _253
REMARK  102  A    between atoms: _253  and  _254
REMARK  103  A    between atoms: _257  and  _259
REMARK  104  A    between atoms: _259  and  _260
REMARK  105  A    between atoms: _259  and  _262
REMARK  106  A    between atoms: _262  and  _263
REMARK  107  A    between atoms: _263  and  _264
REMARK  108  A    between atoms: _267  and  _269
REMARK  109  A    between atoms: _269  and  _270
REMARK  110  A    between atoms: _269  and  _272
REMARK  111  A    between atoms: _272  and  _273
REMARK  112  A    between atoms: _276  and  _278
REMARK  113  A    between atoms: _278  and  _279
REMARK  114  A    between atoms: _278  and  _281
REMARK  115  A    between atoms: _281  and  _282
REMARK  116  A    between atoms: _282  and  _283
REMARK  117  A    between atoms: _283  and  _284
REMARK  118  A    between atoms: _284  and  _285
REMARK  119  A    between atoms: _289  and  _291
REMARK  120  A    between atoms: _291  and  _292
REMARK  121  A    between atoms: _291  and  _294
REMARK  122  A    between atoms: _294  and  _295
REMARK  123  A    between atoms: _298  and  _300
REMARK  124  A    between atoms: _300  and  _301
REMARK  125  A    between atoms: _300  and  _303
REMARK  126  A    between atoms: _303  and  _304
REMARK  127  A    between atoms: _307  and  _309
REMARK  128  A    between atoms: _309  and  _310
REMARK  129  A    between atoms: _309  and  _312
REMARK  130  A    between atoms: _312  and  _313
REMARK  131  A    between atoms: _313  and  _314
REMARK  132  A    between atoms: _316  and  _318
REMARK  133  A    between atoms: _318  and  _319
REMARK  134  A    between atoms: _318  and  _321
REMARK  135  A    between atoms: _321  and  _322
REMARK  136  A    between atoms: _322  and  _323
REMARK  137  A    between atoms: _325  and  _327
REMARK  138  A    between atoms: _327  and  _328
REMARK  139  A    between atoms: _327  and  _330
REMARK  140  A    between atoms: _330  and  _331
REMARK  141  A    between atoms: _336  and  _337
REMARK  142  A    between atoms: _339  and  _341
REMARK  143  A    between atoms: _341  and  _342
REMARK  144  A    between atoms: _341  and  _344
REMARK  145  A    between atoms: _344  and  _345
REMARK  146  A    between atoms: _350  and  _351
REMARK  147  A    between atoms: _353  and  _355
REMARK  148  A    between atoms: _355  and  _356
REMARK  149  A    between atoms: _355  and  _358
REMARK  150  A    between atoms: _361  and  _363
REMARK  151  A    between atoms: _363  and  _364
REMARK  152  A    between atoms: _367  and  _369
REMARK  153  A    between atoms: _369  and  _370
REMARK  154  A    between atoms: _372  and  _374
REMARK  155  A    between atoms: _374  and  _375
REMARK  156  A    between atoms: _374  and  _377
REMARK  157  A    between atoms: _377  and  _378
REMARK  158  A    between atoms: _381  and  _383
REMARK  159  A    between atoms: _383  and  _384
REMARK  160  A    between atoms: _383  and  _386
REMARK  161  A    between atoms: _389  and  _391
REMARK  162  A    between atoms: _391  and  _392
REMARK  163  A    between atoms: _394  and  _396
REMARK  164  A    between atoms: _396  and  _397
REMARK  165  A    between atoms: _399  and  _401
REMARK  166  A    between atoms: _401  and  _402
REMARK  167  A    between atoms: _401  and  _404
REMARK  168  A    between atoms: _404  and  _405
REMARK  169  A    between atoms: _408  and  _410
REMARK  170  A    between atoms: _410  and  _411
REMARK  171  A    between atoms: _410  and  _413
REMARK  172  A    between atoms: _413  and  _414
REMARK  173  A    between atoms: _417  and  _419
REMARK  174  A    between atoms: _419  and  _420
REMARK  175  A    between atoms: _419  and  _422
REMARK  176  A    between atoms: _422  and  _423
REMARK  177  A    between atoms: _429  and  _431
REMARK  178  A    between atoms: _431  and  _432
REMARK  179  A    between atoms: _431  and  _434
REMARK  180  A    between atoms: _434  and  _435
REMARK  181  A    between atoms: _435  and  _436
REMARK  182  A    between atoms: _438  and  _440
REMARK  183  A    between atoms: _440  and  _441
REMARK  184  A    between atoms: _440  and  _443
REMARK  185  A    between atoms: _443  and  _444
REMARK  186  A    between atoms: _450  and  _452
REMARK  187  A    between atoms: _452  and  _453
REMARK  188  A    between atoms: _452  and  _455
REMARK  189  A    between atoms: _455  and  _456
REMARK  190  A    between atoms: _459  and  _461
REMARK  191  A    between atoms: _461  and  _462
REMARK  192  A    between atoms: _461  and  _464
REMARK  193  A    between atoms: _464  and  _465
REMARK  194  A    between atoms: _465  and  _466
REMARK  195  A    between atoms: _471  and  _473
REMARK  196  A    between atoms: _473  and  _474
REMARK  197  A    between atoms: _473  and  _476
REMARK  198  A    between atoms: _476  and  _477
REMARK  199  A    between atoms: _477  and  _478
REMARK  200  A    between atoms: _478  and  _479
REMARK  201  A    between atoms: _479  and  _480
REMARK  202  A    between atoms: _484  and  _486
REMARK  203  A    between atoms: _486  and  _487
REMARK  204  A    between atoms: _486  and  _489
REMARK  205  A    between atoms: _489  and  _490
REMARK  206  A    between atoms: _493  and  _495
REMARK  207  A    between atoms: _495  and  _496
REMARK  208  A    between atoms: _495  and  _498
REMARK  209  A    between atoms: _498  and  _499
REMARK  210  A    between atoms: _504  and  _506
REMARK  211  A    between atoms: _506  and  _507
REMARK  212  A    between atoms: _506  and  _509
REMARK  213  A    between atoms: _509  and  _510
REMARK  214  A    between atoms: _513  and  _515
REMARK  215  A    between atoms: _515  and  _516
REMARK  216  A    between atoms: _515  and  _518
REMARK  217  A    between atoms: _518  and  _519
REMARK  218  A    between atoms: _519  and  _520
REMARK  219  A    between atoms: _520  and  _521
REMARK  220  A    between atoms: _530  and  _532
REMARK  221  A    between atoms: _532  and  _533
REMARK  222  A    between atoms: _532  and  _535
REMARK  223  A    between atoms: _535  and  _536
REMARK  224  A    between atoms: _539  and  _541
REMARK  225  A    between atoms: _541  and  _542
REMARK  226  A    between atoms: _541  and  _544
REMARK  227  A    between atoms: _544  and  _545
REMARK  228  A    between atoms: _545  and  _546
REMARK  229  A    between atoms: _549  and  _551
REMARK  230  A    between atoms: _551  and  _552
REMARK  231  A    between atoms: _551  and  _554
REMARK  232  A    between atoms: _554  and  _555
REMARK  233  A    between atoms: _561  and  _563
REMARK  234  A    between atoms: _563  and  _564
REMARK  235  A    between atoms: _563  and  _566
REMARK  236  A    between atoms: _566  and  _567
REMARK  237  A    between atoms: _571  and  _572
REMARK  238  A    between atoms: _577  and  _579
REMARK  239  A    between atoms: _579  and  _580
REMARK  240  A    between atoms: _579  and  _582
REMARK  241  A    between atoms: _582  and  _583
REMARK  242  A    between atoms: _583  and  _584
REMARK  243  A    between atoms: _589  and  _591
REMARK  244  A    between atoms: _591  and  _592
REMARK  245  A    between atoms: _591  and  _594
REMARK  246  A    between atoms: _597  and  _599
REMARK  247  A    between atoms: _599  and  _600
REMARK  248  A    between atoms: _599  and  _602
REMARK  249  A    between atoms: _602  and  _603
REMARK  250  A    between atoms: _603  and  _604
REMARK  251  A    between atoms: _606  and  _608
REMARK  252  A    between atoms: _608  and  _609
REMARK  253  A    between atoms: _612  and  _614
REMARK  254  A    between atoms: _614  and  _615
REMARK  255  A    between atoms: _614  and  _617
REMARK  256  A    between atoms: _617  and  _618
REMARK  257  A    between atoms: _621  and  _623
REMARK  258  A    between atoms: _623  and  _624
REMARK  259  A    between atoms: _627  and  _629
REMARK  260  A    between atoms: _629  and  _630
REMARK  261  A    between atoms: _629  and  _632
REMARK  262  A    between atoms: _632  and  _633
REMARK  263  A    between atoms: _636  and  _638
REMARK  264  A    between atoms: _638  and  _639
REMARK  265  A    between atoms: _638  and  _641
REMARK  266  A    between atoms: _641  and  _642
REMARK  267  A    between atoms: _645  and  _647
REMARK  268  A    between atoms: _647  and  _648
REMARK  269  A    between atoms: _647  and  _650
REMARK  270  A    between atoms: _650  and  _651
REMARK  271  A    between atoms: _654  and  _656
REMARK  272  A    between atoms: _656  and  _657
REMARK  273  A    between atoms: _656  and  _659
REMARK  274  A    between atoms: _659  and  _660
REMARK  275  A    between atoms: _660  and  _661
REMARK  276  A    between atoms: _666  and  _668
REMARK  277  A    between atoms: _668  and  _669
REMARK  278  A    between atoms: _672  and  _674
REMARK  279  A    between atoms: _674  and  _675
REMARK  280  A    between atoms: _674  and  _677
REMARK  281  A    between atoms: _680  and  _682
REMARK  282  A    between atoms: _682  and  _683
REMARK  283  A    between atoms: _682  and  _685
REMARK  284  A    between atoms: _685  and  _686
REMARK  285  A    between atoms: _689  and  _691
REMARK  286  A    between atoms: _691  and  _692
REMARK  287  A    between atoms: _691  and  _694
REMARK  288  A    between atoms: _694  and  _695
REMARK  289  A    between atoms: _695  and  _696
REMARK                            x       y       z     vdW  Elec       q    Type
REMARK                         _______ _______ _______ _____ _____    ______ ____
ROOT
ATOM      1  O   HOH     1      27.904  61.774  55.966  0.00  0.00    +0.000 OA
ENDROOT
TORSDOF 0
REMARK  Name = ../refined-set-2016/3vjc/3vjc_pocket.pdb
REMARK  289 active torsions:
REMARK  status: ('A' for Active; 'I' for Inactive)
REMARK    1  A    between atoms: _1  and  _3
REMARK    2  A    between atoms: _3  and  _4
REMARK    3  A    between atoms: _3  and  _6
REMARK    4  A    between atoms: _6  and  _7
REMARK    5  A    between atoms: _10  and  _12
REMARK    6  A    between atoms: _12  and  _13
REMARK    7  A    between atoms: _12  and  _15
REMARK    8  A    between atoms: _15  and  _16
REMARK    9  A    between atoms: _21  and  _23
REMARK   10  A    between atoms: _23  and  _24
REMARK   11  A    between atoms: _23  and  _26
REMARK   12  A    between atoms: _26  and  _27
REMARK   13  A    between atoms: _27  and  _28
REMARK   14  A    between atoms: _33  and  _35
REMARK   15  A    between atoms: _35  and  _36
REMARK   16  A    between atoms: _35  and  _38
REMARK   17  A    between atoms: _38  and  _39
REMARK   18  A    between atoms: _42  and  _44
REMARK   19  A    between atoms: _44  and  _45
REMARK   20  A    between atoms: _44  and  _47
REMARK   21  A    between atoms: _47  and  _48
REMARK   22  A    between atoms: _50  and  _52
REMARK   23  A    between atoms: _52  and  _53
REMARK   24  A    between atoms: _52  and  _55
REMARK   25  A    between atoms: _55  and  _56
REMARK   26  A    between atoms: _56  and  _57
REMARK   27  A    between atoms: _57  and  _58
REMARK   28  A    between atoms: _67  and  _69
REMARK   29  A    between atoms: _69  and  _70
REMARK   30  A    between atoms: _69  and  _72
REMARK   31  A    between atoms: _72  and  _73
REMARK   32  A    between atoms: _75  and  _77
REMARK   33  A    between atoms: _77  and  _78
REMARK   34  A    between atoms: _77  and  _80
REMARK   35  A    between atoms: _80  and  _81
REMARK   36  A    between atoms: _87  and  _89
REMARK   37  A    between atoms: _89  and  _90
REMARK   38  A    between atoms: _93  and  _95
REMARK   39  A    between atoms: _95  and  _96
REMARK   40  A    between atoms: _99  and  _101
REMARK   41  A    between atoms: _101  and  _102
REMARK   42  A    between atoms: _101  and  _104
REMARK   43  A    between atoms: _107  and  _109
REMARK   44  A    between atoms: _109  and  _110
REMARK   45  A    between atoms: _109  and  _112
REMARK   46  A    between atoms: _112  and  _113
REMARK   47  A    between atoms: _116  and  _118
REMARK   48  A    between atoms: _118  and  _119
REMARK   49  A    between atoms: _118  and  _121
REMARK   50  A    between atoms: _121  and  _122
REMARK   51  A    between atoms: _125  and  _127
REMARK   52  A    between atoms: _127  and  _128
REMARK   53  A    between atoms: _131  and  _133
REMARK   54  A    between atoms: _133  and  _134
REMARK   55  A    between atoms: _133  and  _136
REMARK   56  A    between atoms: _139  and  _141
REMARK   57  A    between atoms: _141  and  _142
REMARK   58  A    between atoms: _141  and  _144
REMARK   59  A    between atoms: _146  and  _148
REMARK   60  A    between atoms: _148  and  _149
REMARK   61  A    between atoms: _148  and  _151
REMARK   62  A    between atoms: _151  and  _152
REMARK   63  A    between atoms: _155  and  _157
REMARK   64  A    between atoms: _157  and  _158
REMARK   65  A    between atoms: _157  and  _160
REMARK   66  A    between atoms: _160  and  _161
REMARK   67  A    between atoms: _167  and  _169
REMARK   68  A    between atoms: _169  and  _170
REMARK   69  A    between atoms: _169  and  _172
REMARK   70  A    between atoms: _172  and  _173
REMARK   71  A    between atoms: _178  and  _179
REMARK   72  A    between atoms: _181  and  _183
REMARK   73  A    between atoms: _183  and  _184
REMARK   74  A    between atoms: _183  and  _186
REMARK   75  A    between atoms: _186  and  _187
REMARK   76  A    between atoms: _190  and  _192
REMARK   77  A    between atoms: _192  and  _193
REMARK   78  A    between atoms: _192  and  _195
REMARK   79  A    between atoms: _198  and  _200
REMARK   80  A    between atoms: _200  and  _201
REMARK   81  A    between atoms: _200  and  _203
REMARK   82  A    between atoms: _203  and  _204
REMARK   83  A    between atoms: _207  and  _209
REMARK   84  A    between atoms: _209  and  _210
REMARK   85  A    between atoms: _209  and  _212
REMARK   86  A    between atoms: _212  and  _213
REMARK   87  A    between atoms: _213  and  _214
REMARK   88  A    between atoms: _214  and  _215
REMARK   89  A    between atoms: _224  and  _226
REMARK   90  A    between atoms: _226  and  _227
REMARK   91  A    between atoms: _230  and  _232
REMARK   92  A    between atoms: _232  and  _233
REMARK   93  A    between atoms: _232  and  _235
REMARK   94  A    between atoms: _235  and  _236
REMARK   95  A    between atoms: _239  and  _241
REMARK   96  A    between atoms: _241  and  _242
REMARK   97  A    between atoms: _241  and  _244
REMARK   98  A    between atoms: _244  and  _245
REMARK   99  A    between atoms: _248  and  _250
REMARK  100  A    between atoms: _250  and  _251
REMARK  101  A    between atoms: _250  and  _253
REMARK  102  A    between atoms: _253  and  _254
REMARK  103  A    between atoms: _257  and  _259
REMARK  104  A    between atoms: _259  and  _260
REMARK  105  A    between atoms: _259  and  _262
REMARK  106  A    between atoms: _262  and  _263
REMARK  107  A    between atoms: _263  and  _264
REMARK  108  A    between atoms: _267  and  _269
REMARK  109  A    between atoms: _269  and  _270
REMARK  110  A    between atoms: _269  and  _272
REMARK  111  A    between atoms: _272  and  _273
REMARK  112  A    between atoms: _276  and  _278
REMARK  113  A    between atoms: _278  and  _279
REMARK  114  A    between atoms: _278  and  _281
REMARK  115  A    between atoms: _281  and  _282
REMARK  116  A    between atoms: _282  and  _283
REMARK  117  A    between atoms: _283  and  _284
REMARK  118  A    between atoms: _284  and  _285
REMARK  119  A    between atoms: _289  and  _291
REMARK  120  A    between atoms: _291  and  _292
REMARK  121  A    between atoms: _291  and  _294
REMARK  122  A    between atoms: _294  and  _295
REMARK  123  A    between atoms: _298  and  _300
REMARK  124  A    between atoms: _300  and  _301
REMARK  125  A    between atoms: _300  and  _303
REMARK  126  A    between atoms: _303  and  _304
REMARK  127  A    between atoms: _307  and  _309
REMARK  128  A    between atoms: _309  and  _310
REMARK  129  A    between atoms: _309  and  _312
REMARK  130  A    between atoms: _312  and  _313
REMARK  131  A    between atoms: _313  and  _314
REMARK  132  A    between atoms: _316  and  _318
REMARK  133  A    between atoms: _318  and  _319
REMARK  134  A    between atoms: _318  and  _321
REMARK  135  A    between atoms: _321  and  _322
REMARK  136  A    between atoms: _322  and  _323
REMARK  137  A    between atoms: _325  and  _327
REMARK  138  A    between atoms: _327  and  _328
REMARK  139  A    between atoms: _327  and  _330
REMARK  140  A    between atoms: _330  and  _331
REMARK  141  A    between atoms: _336  and  _337
REMARK  142  A    between atoms: _339  and  _341
REMARK  143  A    between atoms: _341  and  _342
REMARK  144  A    between atoms: _341  and  _344
REMARK  145  A    between atoms: _344  and  _345
REMARK  146  A    between atoms: _350  and  _351
REMARK  147  A    between atoms: _353  and  _355
REMARK  148  A    between atoms: _355  and  _356
REMARK  149  A    between atoms: _355  and  _358
REMARK  150  A    between atoms: _361  and  _363
REMARK  151  A    between atoms: _363  and  _364
REMARK  152  A    between atoms: _367  and  _369
REMARK  153  A    between atoms: _369  and  _370
REMARK  154  A    between atoms: _372  and  _374
REMARK  155  A    between atoms: _374  and  _375
REMARK  156  A    between atoms: _374  and  _377
REMARK  157  A    between atoms: _377  and  _378
REMARK  158  A    between atoms: _381  and  _383
REMARK  159  A    between atoms: _383  and  _384
REMARK  160  A    between atoms: _383  and  _386
REMARK  161  A    between atoms: _389  and  _391
REMARK  162  A    between atoms: _391  and  _392
REMARK  163  A    between atoms: _394  and  _396
REMARK  164  A    between atoms: _396  and  _397
REMARK  165  A    between atoms: _399  and  _401
REMARK  166  A    between atoms: _401  and  _402
REMARK  167  A    between atoms: _401  and  _404
REMARK  168  A    between atoms: _404  and  _405
REMARK  169  A    between atoms: _408  and  _410
REMARK  170  A    between atoms: _410  and  _411
REMARK  171  A    between atoms: _410  and  _413
REMARK  172  A    between atoms: _413  and  _414
REMARK  173  A    between atoms: _417  and  _419
REMARK  174  A    between atoms: _419  and  _420
REMARK  175  A    between atoms: _419  and  _422
REMARK  176  A    between atoms: _422  and  _423
REMARK  177  A    between atoms: _429  and  _431
REMARK  178  A    between atoms: _431  and  _432
REMARK  179  A    between atoms: _431  and  _434
REMARK  180  A    between atoms: _434  and  _435
REMARK  181  A    between atoms: _435  and  _436
REMARK  182  A    between atoms: _438  and  _440
REMARK  183  A    between atoms: _440  and  _441
REMARK  184  A    between atoms: _440  and  _443
REMARK  185  A    between atoms: _443  and  _444
REMARK  186  A    between atoms: _450  and  _452
REMARK  187  A    between atoms: _452  and  _453
REMARK  188  A    between atoms: _452  and  _455
REMARK  189  A    between atoms: _455  and  _456
REMARK  190  A    between atoms: _459  and  _461
REMARK  191  A    between atoms: _461  and  _462
REMARK  192  A    between atoms: _461  and  _464
REMARK  193  A    between atoms: _464  and  _465
REMARK  194  A    between atoms: _465  and  _466
REMARK  195  A    between atoms: _471  and  _473
REMARK  196  A    between atoms: _473  and  _474
REMARK  197  A    between atoms: _473  and  _476
REMARK  198  A    between atoms: _476  and  _477
REMARK  199  A    between atoms: _477  and  _478
REMARK  200  A    between atoms: _478  and  _479
REMARK  201  A    between atoms: _479  and  _480
REMARK  202  A    between atoms: _484  and  _486
REMARK  203  A    between atoms: _486  and  _487
REMARK  204  A    between atoms: _486  and  _489
REMARK  205  A    between atoms: _489  and  _490
REMARK  206  A    between atoms: _493  and  _495
REMARK  207  A    between atoms: _495  and  _496
REMARK  208  A    between atoms: _495  and  _498
REMARK  209  A    between atoms: _498  and  _499
REMARK  210  A    between atoms: _504  and  _506
REMARK  211  A    between atoms: _506  and  _507
REMARK  212  A    between atoms: _506  and  _509
REMARK  213  A    between atoms: _509  and  _510
REMARK  214  A    between atoms: _513  and  _515
REMARK  215  A    between atoms: _515  and  _516
REMARK  216  A    between atoms: _515  and  _518
REMARK  217  A    between atoms: _518  and  _519
REMARK  218  A    between atoms: _519  and  _520
REMARK  219  A    between atoms: _520  and  _521
REMARK  220  A    between atoms: _530  and  _532
REMARK  221  A    between atoms: _532  and  _533
REMARK  222  A    between atoms: _532  and  _535
REMARK  223  A    between atoms: _535  and  _536
REMARK  224  A    between atoms: _539  and  _541
REMARK  225  A    between atoms: _541  and  _542
REMARK  226  A    between atoms: _541  and  _544
REMARK  227  A    between atoms: _544  and  _545
REMARK  228  A    between atoms: _545  and  _546
REMARK  229  A    between atoms: _549  and  _551
REMARK  230  A    between atoms: _551  and  _552
REMARK  231  A    between atoms: _551  and  _554
REMARK  232  A    between atoms: _554  and  _555
REMARK  233  A    between atoms: _561  and  _563
REMARK  234  A    between atoms: _563  and  _564
REMARK  235  A    between atoms: _563  and  _566
REMARK  236  A    between atoms: _566  and  _567
REMARK  237  A    between atoms: _571  and  _572
REMARK  238  A    between atoms: _577  and  _579
REMARK  239  A    between atoms: _579  and  _580
REMARK  240  A    between atoms: _579  and  _582
REMARK  241  A    between atoms: _582  and  _583
REMARK  242  A    between atoms: _583  and  _584
REMARK  243  A    between atoms: _589  and  _591
REMARK  244  A    between atoms: _591  and  _592
REMARK  245  A    between atoms: _591  and  _594
REMARK  246  A    between atoms: _597  and  _599
REMARK  247  A    between atoms: _599  and  _600
REMARK  248  A    between atoms: _599  and  _602
REMARK  249  A    between atoms: _602  and  _603
REMARK  250  A    between atoms: _603  and  _604
REMARK  251  A    between atoms: _606  and  _608
REMARK  252  A    between atoms: _608  and  _609
REMARK  253  A    between atoms: _612  and  _614
REMARK  254  A    between atoms: _614  and  _615
REMARK  255  A    between atoms: _614  and  _617
REMARK  256  A    between atoms: _617  and  _618
REMARK  257  A    between atoms: _621  and  _623
REMARK  258  A    between atoms: _623  and  _624
REMARK  259  A    between atoms: _627  and  _629
REMARK  260  A    between atoms: _629  and  _630
REMARK  261  A    between atoms: _629  and  _632
REMARK  262  A    between atoms: _632  and  _633
REMARK  263  A    between atoms: _636  and  _638
REMARK  264  A    between atoms: _638  and  _639
REMARK  265  A    between atoms: _638  and  _641
REMARK  266  A    between atoms: _641  and  _642
REMARK  267  A    between atoms: _645  and  _647
REMARK  268  A    between atoms: _647  and  _648
REMARK  269  A    between atoms: _647  and  _650
REMARK  270  A    between atoms: _650  and  _651
REMARK  271  A    between atoms: _654  and  _656
REMARK  272  A    between atoms: _656  and  _657
REMARK  273  A    between atoms: _656  and  _659
REMARK  274  A    between atoms: _659  and  _660
REMARK  275  A    between atoms: _660  and  _661
REMARK  276  A    between atoms: _666  and  _668
REMARK  277  A    between atoms: _668  and  _669
REMARK  278  A    between atoms: _672  and  _674
REMARK  279  A    between atoms: _674  and  _675
REMARK  280  A    between atoms: _674  and  _677
REMARK  281  A    between atoms: _680  and  _682
REMARK  282  A    between atoms: _682  and  _683
REMARK  283  A    between atoms: _682  and  _685
REMARK  284  A    between atoms: _685  and  _686
REMARK  285  A    between atoms: _689  and  _691
REMARK  286  A    between atoms: _691  and  _692
REMARK  287  A    between atoms: _691  and  _694
REMARK  288  A    between atoms: _694  and  _695
REMARK  289  A    between atoms: _695  and  _696
REMARK                            x       y       z     vdW  Elec       q    Type
REMARK                         _______ _______ _______ _____ _____    ______ ____
ROOT
ATOM      1  O   HOH     1      28.394  59.980  52.207  0.00  0.00    +0.000 OA
ENDROOT
TORSDOF 0
REMARK  Name = ../refined-set-2016/3vjc/3vjc_pocket.pdb
REMARK  289 active torsions:
REMARK  status: ('A' for Active; 'I' for Inactive)
REMARK    1  A    between atoms: _1  and  _3
REMARK    2  A    between atoms: _3  and  _4
REMARK    3  A    between atoms: _3  and  _6
REMARK    4  A    between atoms: _6  and  _7
REMARK    5  A    between atoms: _10  and  _12
REMARK    6  A    between atoms: _12  and  _13
REMARK    7  A    between atoms: _12  and  _15
REMARK    8  A    between atoms: _15  and  _16
REMARK    9  A    between atoms: _21  and  _23
REMARK   10  A    between atoms: _23  and  _24
REMARK   11  A    between atoms: _23  and  _26
REMARK   12  A    between atoms: _26  and  _27
REMARK   13  A    between atoms: _27  and  _28
REMARK   14  A    between atoms: _33  and  _35
REMARK   15  A    between atoms: _35  and  _36
REMARK   16  A    between atoms: _35  and  _38
REMARK   17  A    between atoms: _38  and  _39
REMARK   18  A    between atoms: _42  and  _44
REMARK   19  A    between atoms: _44  and  _45
REMARK   20  A    between atoms: _44  and  _47
REMARK   21  A    between atoms: _47  and  _48
REMARK   22  A    between atoms: _50  and  _52
REMARK   23  A    between atoms: _52  and  _53
REMARK   24  A    between atoms: _52  and  _55
REMARK   25  A    between atoms: _55  and  _56
REMARK   26  A    between atoms: _56  and  _57
REMARK   27  A    between atoms: _57  and  _58
REMARK   28  A    between atoms: _67  and  _69
REMARK   29  A    between atoms: _69  and  _70
REMARK   30  A    between atoms: _69  and  _72
REMARK   31  A    between atoms: _72  and  _73
REMARK   32  A    between atoms: _75  and  _77
REMARK   33  A    between atoms: _77  and  _78
REMARK   34  A    between atoms: _77  and  _80
REMARK   35  A    between atoms: _80  and  _81
REMARK   36  A    between atoms: _87  and  _89
REMARK   37  A    between atoms: _89  and  _90
REMARK   38  A    between atoms: _93  and  _95
REMARK   39  A    between atoms: _95  and  _96
REMARK   40  A    between atoms: _99  and  _101
REMARK   41  A    between atoms: _101  and  _102
REMARK   42  A    between atoms: _101  and  _104
REMARK   43  A    between atoms: _107  and  _109
REMARK   44  A    between atoms: _109  and  _110
REMARK   45  A    between atoms: _109  and  _112
REMARK   46  A    between atoms: _112  and  _113
REMARK   47  A    between atoms: _116  and  _118
REMARK   48  A    between atoms: _118  and  _119
REMARK   49  A    between atoms: _118  and  _121
REMARK   50  A    between atoms: _121  and  _122
REMARK   51  A    between atoms: _125  and  _127
REMARK   52  A    between atoms: _127  and  _128
REMARK   53  A    between atoms: _131  and  _133
REMARK   54  A    between atoms: _133  and  _134
REMARK   55  A    between atoms: _133  and  _136
REMARK   56  A    between atoms: _139  and  _141
REMARK   57  A    between atoms: _141  and  _142
REMARK   58  A    between atoms: _141  and  _144
REMARK   59  A    between atoms: _146  and  _148
REMARK   60  A    between atoms: _148  and  _149
REMARK   61  A    between atoms: _148  and  _151
REMARK   62  A    between atoms: _151  and  _152
REMARK   63  A    between atoms: _155  and  _157
REMARK   64  A    between atoms: _157  and  _158
REMARK   65  A    between atoms: _157  and  _160
REMARK   66  A    between atoms: _160  and  _161
REMARK   67  A    between atoms: _167  and  _169
REMARK   68  A    between atoms: _169  and  _170
REMARK   69  A    between atoms: _169  and  _172
REMARK   70  A    between atoms: _172  and  _173
REMARK   71  A    between atoms: _178  and  _179
REMARK   72  A    between atoms: _181  and  _183
REMARK   73  A    between atoms: _183  and  _184
REMARK   74  A    between atoms: _183  and  _186
REMARK   75  A    between atoms: _186  and  _187
REMARK   76  A    between atoms: _190  and  _192
REMARK   77  A    between atoms: _192  and  _193
REMARK   78  A    between atoms: _192  and  _195
REMARK   79  A    between atoms: _198  and  _200
REMARK   80  A    between atoms: _200  and  _201
REMARK   81  A    between atoms: _200  and  _203
REMARK   82  A    between atoms: _203  and  _204
REMARK   83  A    between atoms: _207  and  _209
REMARK   84  A    between atoms: _209  and  _210
REMARK   85  A    between atoms: _209  and  _212
REMARK   86  A    between atoms: _212  and  _213
REMARK   87  A    between atoms: _213  and  _214
REMARK   88  A    between atoms: _214  and  _215
REMARK   89  A    between atoms: _224  and  _226
REMARK   90  A    between atoms: _226  and  _227
REMARK   91  A    between atoms: _230  and  _232
REMARK   92  A    between atoms: _232  and  _233
REMARK   93  A    between atoms: _232  and  _235
REMARK   94  A    between atoms: _235  and  _236
REMARK   95  A    between atoms: _239  and  _241
REMARK   96  A    between atoms: _241  and  _242
REMARK   97  A    between atoms: _241  and  _244
REMARK   98  A    between atoms: _244  and  _245
REMARK   99  A    between atoms: _248  and  _250
REMARK  100  A    between atoms: _250  and  _251
REMARK  101  A    between atoms: _250  and  _253
REMARK  102  A    between atoms: _253  and  _254
REMARK  103  A    between atoms: _257  and  _259
REMARK  104  A    between atoms: _259  and  _260
REMARK  105  A    between atoms: _259  and  _262
REMARK  106  A    between atoms: _262  and  _263
REMARK  107  A    between atoms: _263  and  _264
REMARK  108  A    between atoms: _267  and  _269
REMARK  109  A    between atoms: _269  and  _270
REMARK  110  A    between atoms: _269  and  _272
REMARK  111  A    between atoms: _272  and  _273
REMARK  112  A    between atoms: _276  and  _278
REMARK  113  A    between atoms: _278  and  _279
REMARK  114  A    between atoms: _278  and  _281
REMARK  115  A    between atoms: _281  and  _282
REMARK  116  A    between atoms: _282  and  _283
REMARK  117  A    between atoms: _283  and  _284
REMARK  118  A    between atoms: _284  and  _285
REMARK  119  A    between atoms: _289  and  _291
REMARK  120  A    between atoms: _291  and  _292
REMARK  121  A    between atoms: _291  and  _294
REMARK  122  A    between atoms: _294  and  _295
REMARK  123  A    between atoms: _298  and  _300
REMARK  124  A    between atoms: _300  and  _301
REMARK  125  A    between atoms: _300  and  _303
REMARK  126  A    between atoms: _303  and  _304
REMARK  127  A    between atoms: _307  and  _309
REMARK  128  A    between atoms: _309  and  _310
REMARK  129  A    between atoms: _309  and  _312
REMARK  130  A    between atoms: _312  and  _313
REMARK  131  A    between atoms: _313  and  _314
REMARK  132  A    between atoms: _316  and  _318
REMARK  133  A    between atoms: _318  and  _319
REMARK  134  A    between atoms: _318  and  _321
REMARK  135  A    between atoms: _321  and  _322
REMARK  136  A    between atoms: _322  and  _323
REMARK  137  A    between atoms: _325  and  _327
REMARK  138  A    between atoms: _327  and  _328
REMARK  139  A    between atoms: _327  and  _330
REMARK  140  A    between atoms: _330  and  _331
REMARK  141  A    between atoms: _336  and  _337
REMARK  142  A    between atoms: _339  and  _341
REMARK  143  A    between atoms: _341  and  _342
REMARK  144  A    between atoms: _341  and  _344
REMARK  145  A    between atoms: _344  and  _345
REMARK  146  A    between atoms: _350  and  _351
REMARK  147  A    between atoms: _353  and  _355
REMARK  148  A    between atoms: _355  and  _356
REMARK  149  A    between atoms: _355  and  _358
REMARK  150  A    between atoms: _361  and  _363
REMARK  151  A    between atoms: _363  and  _364
REMARK  152  A    between atoms: _367  and  _369
REMARK  153  A    between atoms: _369  and  _370
REMARK  154  A    between atoms: _372  and  _374
REMARK  155  A    between atoms: _374  and  _375
REMARK  156  A    between atoms: _374  and  _377
REMARK  157  A    between atoms: _377  and  _378
REMARK  158  A    between atoms: _381  and  _383
REMARK  159  A    between atoms: _383  and  _384
REMARK  160  A    between atoms: _383  and  _386
REMARK  161  A    between atoms: _389  and  _391
REMARK  162  A    between atoms: _391  and  _392
REMARK  163  A    between atoms: _394  and  _396
REMARK  164  A    between atoms: _396  and  _397
REMARK  165  A    between atoms: _399  and  _401
REMARK  166  A    between atoms: _401  and  _402
REMARK  167  A    between atoms: _401  and  _404
REMARK  168  A    between atoms: _404  and  _405
REMARK  169  A    between atoms: _408  and  _410
REMARK  170  A    between atoms: _410  and  _411
REMARK  171  A    between atoms: _410  and  _413
REMARK  172  A    between atoms: _413  and  _414
REMARK  173  A    between atoms: _417  and  _419
REMARK  174  A    between atoms: _419  and  _420
REMARK  175  A    between atoms: _419  and  _422
REMARK  176  A    between atoms: _422  and  _423
REMARK  177  A    between atoms: _429  and  _431
REMARK  178  A    between atoms: _431  and  _432
REMARK  179  A    between atoms: _431  and  _434
REMARK  180  A    between atoms: _434  and  _435
REMARK  181  A    between atoms: _435  and  _436
REMARK  182  A    between atoms: _438  and  _440
REMARK  183  A    between atoms: _440  and  _441
REMARK  184  A    between atoms: _440  and  _443
REMARK  185  A    between atoms: _443  and  _444
REMARK  186  A    between atoms: _450  and  _452
REMARK  187  A    between atoms: _452  and  _453
REMARK  188  A    between atoms: _452  and  _455
REMARK  189  A    between atoms: _455  and  _456
REMARK  190  A    between atoms: _459  and  _461
REMARK  191  A    between atoms: _461  and  _462
REMARK  192  A    between atoms: _461  and  _464
REMARK  193  A    between atoms: _464  and  _465
REMARK  194  A    between atoms: _465  and  _466
REMARK  195  A    between atoms: _471  and  _473
REMARK  196  A    between atoms: _473  and  _474
REMARK  197  A    between atoms: _473  and  _476
REMARK  198  A    between atoms: _476  and  _477
REMARK  199  A    between atoms: _477  and  _478
REMARK  200  A    between atoms: _478  and  _479
REMARK  201  A    between atoms: _479  and  _480
REMARK  202  A    between atoms: _484  and  _486
REMARK  203  A    between atoms: _486  and  _487
REMARK  204  A    between atoms: _486  and  _489
REMARK  205  A    between atoms: _489  and  _490
REMARK  206  A    between atoms: _493  and  _495
REMARK  207  A    between atoms: _495  and  _496
REMARK  208  A    between atoms: _495  and  _498
REMARK  209  A    between atoms: _498  and  _499
REMARK  210  A    between atoms: _504  and  _506
REMARK  211  A    between atoms: _506  and  _507
REMARK  212  A    between atoms: _506  and  _509
REMARK  213  A    between atoms: _509  and  _510
REMARK  214  A    between atoms: _513  and  _515
REMARK  215  A    between atoms: _515  and  _516
REMARK  216  A    between atoms: _515  and  _518
REMARK  217  A    between atoms: _518  and  _519
REMARK  218  A    between atoms: _519  and  _520
REMARK  219  A    between atoms: _520  and  _521
REMARK  220  A    between atoms: _530  and  _532
REMARK  221  A    between atoms: _532  and  _533
REMARK  222  A    between atoms: _532  and  _535
REMARK  223  A    between atoms: _535  and  _536
REMARK  224  A    between atoms: _539  and  _541
REMARK  225  A    between atoms: _541  and  _542
REMARK  226  A    between atoms: _541  and  _544
REMARK  227  A    between atoms: _544  and  _545
REMARK  228  A    between atoms: _545  and  _546
REMARK  229  A    between atoms: _549  and  _551
REMARK  230  A    between atoms: _551  and  _552
REMARK  231  A    between atoms: _551  and  _554
REMARK  232  A    between atoms: _554  and  _555
REMARK  233  A    between atoms: _561  and  _563
REMARK  234  A    between atoms: _563  and  _564
REMARK  235  A    between atoms: _563  and  _566
REMARK  236  A    between atoms: _566  and  _567
REMARK  237  A    between atoms: _571  and  _572
REMARK  238  A    between atoms: _577  and  _579
REMARK  239  A    between atoms: _579  and  _580
REMARK  240  A    between atoms: _579  and  _582
REMARK  241  A    between atoms: _582  and  _583
REMARK  242  A    between atoms: _583  and  _584
REMARK  243  A    between atoms: _589  and  _591
REMARK  244  A    between atoms: _591  and  _592
REMARK  245  A    between atoms: _591  and  _594
REMARK  246  A    between atoms: _597  and  _599
REMARK  247  A    between atoms: _599  and  _600
REMARK  248  A    between atoms: _599  and  _602
REMARK  249  A    between atoms: _602  and  _603
REMARK  250  A    between atoms: _603  and  _604
REMARK  251  A    between atoms: _606  and  _608
REMARK  252  A    between atoms: _608  and  _609
REMARK  253  A    between atoms: _612  and  _614
REMARK  254  A    between atoms: _614  and  _615
REMARK  255  A    between atoms: _614  and  _617
REMARK  256  A    between atoms: _617  and  _618
REMARK  257  A    between atoms: _621  and  _623
REMARK  258  A    between atoms: _623  and  _624
REMARK  259  A    between atoms: _627  and  _629
REMARK  260  A    between atoms: _629  and  _630
REMARK  261  A    between atoms: _629  and  _632
REMARK  262  A    between atoms: _632  and  _633
REMARK  263  A    between atoms: _636  and  _638
REMARK  264  A    between atoms: _638  and  _639
REMARK  265  A    between atoms: _638  and  _641
REMARK  266  A    between atoms: _641  and  _642
REMARK  267  A    between atoms: _645  and  _647
REMARK  268  A    between atoms: _647  and  _648
REMARK  269  A    between atoms: _647  and  _650
REMARK  270  A    between atoms: _650  and  _651
REMARK  271  A    between atoms: _654  and  _656
REMARK  272  A    between atoms: _656  and  _657
REMARK  273  A    between atoms: _656  and  _659
REMARK  274  A    between atoms: _659  and  _660
REMARK  275  A    between atoms: _660  and  _661
REMARK  276  A    between atoms: _666  and  _668
REMARK  277  A    between atoms: _668  and  _669
REMARK  278  A    between atoms: _672  and  _674
REMARK  279  A    between atoms: _674  and  _675
REMARK  280  A    between atoms: _674  and  _677
REMARK  281  A    between atoms: _680  and  _682
REMARK  282  A    between atoms: _682  and  _683
REMARK  283  A    between atoms: _682  and  _685
REMARK  284  A    between atoms: _685  and  _686
REMARK  285  A    between atoms: _689  and  _691
REMARK  286  A    between atoms: _691  and  _692
REMARK  287  A    between atoms: _691  and  _694
REMARK  288  A    between atoms: _694  and  _695
REMARK  289  A    between atoms: _695  and  _696
REMARK                            x       y       z     vdW  Elec       q    Type
REMARK                         _______ _______ _______ _____ _____    ______ ____
ROOT
ATOM      1  O   HOH     1      25.720  62.577  57.214  0.00  0.00    +0.000 OA
ENDROOT
TORSDOF 0
REMARK  Name = ../refined-set-2016/3vjc/3vjc_pocket.pdb
REMARK  289 active torsions:
REMARK  status: ('A' for Active; 'I' for Inactive)
REMARK    1  A    between atoms: _1  and  _3
REMARK    2  A    between atoms: _3  and  _4
REMARK    3  A    between atoms: _3  and  _6
REMARK    4  A    between atoms: _6  and  _7
REMARK    5  A    between atoms: _10  and  _12
REMARK    6  A    between atoms: _12  and  _13
REMARK    7  A    between atoms: _12  and  _15
REMARK    8  A    between atoms: _15  and  _16
REMARK    9  A    between atoms: _21  and  _23
REMARK   10  A    between atoms: _23  and  _24
REMARK   11  A    between atoms: _23  and  _26
REMARK   12  A    between atoms: _26  and  _27
REMARK   13  A    between atoms: _27  and  _28
REMARK   14  A    between atoms: _33  and  _35
REMARK   15  A    between atoms: _35  and  _36
REMARK   16  A    between atoms: _35  and  _38
REMARK   17  A    between atoms: _38  and  _39
REMARK   18  A    between atoms: _42  and  _44
REMARK   19  A    between atoms: _44  and  _45
REMARK   20  A    between atoms: _44  and  _47
REMARK   21  A    between atoms: _47  and  _48
REMARK   22  A    between atoms: _50  and  _52
REMARK   23  A    between atoms: _52  and  _53
REMARK   24  A    between atoms: _52  and  _55
REMARK   25  A    between atoms: _55  and  _56
REMARK   26  A    between atoms: _56  and  _57
REMARK   27  A    between atoms: _57  and  _58
REMARK   28  A    between atoms: _67  and  _69
REMARK   29  A    between atoms: _69  and  _70
REMARK   30  A    between atoms: _69  and  _72
REMARK   31  A    between atoms: _72  and  _73
REMARK   32  A    between atoms: _75  and  _77
REMARK   33  A    between atoms: _77  and  _78
REMARK   34  A    between atoms: _77  and  _80
REMARK   35  A    between atoms: _80  and  _81
REMARK   36  A    between atoms: _87  and  _89
REMARK   37  A    between atoms: _89  and  _90
REMARK   38  A    between atoms: _93  and  _95
REMARK   39  A    between atoms: _95  and  _96
REMARK   40  A    between atoms: _99  and  _101
REMARK   41  A    between atoms: _101  and  _102
REMARK   42  A    between atoms: _101  and  _104
REMARK   43  A    between atoms: _107  and  _109
REMARK   44  A    between atoms: _109  and  _110
REMARK   45  A    between atoms: _109  and  _112
REMARK   46  A    between atoms: _112  and  _113
REMARK   47  A    between atoms: _116  and  _118
REMARK   48  A    between atoms: _118  and  _119
REMARK   49  A    between atoms: _118  and  _121
REMARK   50  A    between atoms: _121  and  _122
REMARK   51  A    between atoms: _125  and  _127
REMARK   52  A    between atoms: _127  and  _128
REMARK   53  A    between atoms: _131  and  _133
REMARK   54  A    between atoms: _133  and  _134
REMARK   55  A    between atoms: _133  and  _136
REMARK   56  A    between atoms: _139  and  _141
REMARK   57  A    between atoms: _141  and  _142
REMARK   58  A    between atoms: _141  and  _144
REMARK   59  A    between atoms: _146  and  _148
REMARK   60  A    between atoms: _148  and  _149
REMARK   61  A    between atoms: _148  and  _151
REMARK   62  A    between atoms: _151  and  _152
REMARK   63  A    between atoms: _155  and  _157
REMARK   64  A    between atoms: _157  and  _158
REMARK   65  A    between atoms: _157  and  _160
REMARK   66  A    between atoms: _160  and  _161
REMARK   67  A    between atoms: _167  and  _169
REMARK   68  A    between atoms: _169  and  _170
REMARK   69  A    between atoms: _169  and  _172
REMARK   70  A    between atoms: _172  and  _173
REMARK   71  A    between atoms: _178  and  _179
REMARK   72  A    between atoms: _181  and  _183
REMARK   73  A    between atoms: _183  and  _184
REMARK   74  A    between atoms: _183  and  _186
REMARK   75  A    between atoms: _186  and  _187
REMARK   76  A    between atoms: _190  and  _192
REMARK   77  A    between atoms: _192  and  _193
REMARK   78  A    between atoms: _192  and  _195
REMARK   79  A    between atoms: _198  and  _200
REMARK   80  A    between atoms: _200  and  _201
REMARK   81  A    between atoms: _200  and  _203
REMARK   82  A    between atoms: _203  and  _204
REMARK   83  A    between atoms: _207  and  _209
REMARK   84  A    between atoms: _209  and  _210
REMARK   85  A    between atoms: _209  and  _212
REMARK   86  A    between atoms: _212  and  _213
REMARK   87  A    between atoms: _213  and  _214
REMARK   88  A    between atoms: _214  and  _215
REMARK   89  A    between atoms: _224  and  _226
REMARK   90  A    between atoms: _226  and  _227
REMARK   91  A    between atoms: _230  and  _232
REMARK   92  A    between atoms: _232  and  _233
REMARK   93  A    between atoms: _232  and  _235
REMARK   94  A    between atoms: _235  and  _236
REMARK   95  A    between atoms: _239  and  _241
REMARK   96  A    between atoms: _241  and  _242
REMARK   97  A    between atoms: _241  and  _244
REMARK   98  A    between atoms: _244  and  _245
REMARK   99  A    between atoms: _248  and  _250
REMARK  100  A    between atoms: _250  and  _251
REMARK  101  A    between atoms: _250  and  _253
REMARK  102  A    between atoms: _253  and  _254
REMARK  103  A    between atoms: _257  and  _259
REMARK  104  A    between atoms: _259  and  _260
REMARK  105  A    between atoms: _259  and  _262
REMARK  106  A    between atoms: _262  and  _263
REMARK  107  A    between atoms: _263  and  _264
REMARK  108  A    between atoms: _267  and  _269
REMARK  109  A    between atoms: _269  and  _270
REMARK  110  A    between atoms: _269  and  _272
REMARK  111  A    between atoms: _272  and  _273
REMARK  112  A    between atoms: _276  and  _278
REMARK  113  A    between atoms: _278  and  _279
REMARK  114  A    between atoms: _278  and  _281
REMARK  115  A    between atoms: _281  and  _282
REMARK  116  A    between atoms: _282  and  _283
REMARK  117  A    between atoms: _283  and  _284
REMARK  118  A    between atoms: _284  and  _285
REMARK  119  A    between atoms: _289  and  _291
REMARK  120  A    between atoms: _291  and  _292
REMARK  121  A    between atoms: _291  and  _294
REMARK  122  A    between atoms: _294  and  _295
REMARK  123  A    between atoms: _298  and  _300
REMARK  124  A    between atoms: _300  and  _301
REMARK  125  A    between atoms: _300  and  _303
REMARK  126  A    between atoms: _303  and  _304
REMARK  127  A    between atoms: _307  and  _309
REMARK  128  A    between atoms: _309  and  _310
REMARK  129  A    between atoms: _309  and  _312
REMARK  130  A    between atoms: _312  and  _313
REMARK  131  A    between atoms: _313  and  _314
REMARK  132  A    between atoms: _316  and  _318
REMARK  133  A    between atoms: _318  and  _319
REMARK  134  A    between atoms: _318  and  _321
REMARK  135  A    between atoms: _321  and  _322
REMARK  136  A    between atoms: _322  and  _323
REMARK  137  A    between atoms: _325  and  _327
REMARK  138  A    between atoms: _327  and  _328
REMARK  139  A    between atoms: _327  and  _330
REMARK  140  A    between atoms: _330  and  _331
REMARK  141  A    between atoms: _336  and  _337
REMARK  142  A    between atoms: _339  and  _341
REMARK  143  A    between atoms: _341  and  _342
REMARK  144  A    between atoms: _341  and  _344
REMARK  145  A    between atoms: _344  and  _345
REMARK  146  A    between atoms: _350  and  _351
REMARK  147  A    between atoms: _353  and  _355
REMARK  148  A    between atoms: _355  and  _356
REMARK  149  A    between atoms: _355  and  _358
REMARK  150  A    between atoms: _361  and  _363
REMARK  151  A    between atoms: _363  and  _364
REMARK  152  A    between atoms: _367  and  _369
REMARK  153  A    between atoms: _369  and  _370
REMARK  154  A    between atoms: _372  and  _374
REMARK  155  A    between atoms: _374  and  _375
REMARK  156  A    between atoms: _374  and  _377
REMARK  157  A    between atoms: _377  and  _378
REMARK  158  A    between atoms: _381  and  _383
REMARK  159  A    between atoms: _383  and  _384
REMARK  160  A    between atoms: _383  and  _386
REMARK  161  A    between atoms: _389  and  _391
REMARK  162  A    between atoms: _391  and  _392
REMARK  163  A    between atoms: _394  and  _396
REMARK  164  A    between atoms: _396  and  _397
REMARK  165  A    between atoms: _399  and  _401
REMARK  166  A    between atoms: _401  and  _402
REMARK  167  A    between atoms: _401  and  _404
REMARK  168  A    between atoms: _404  and  _405
REMARK  169  A    between atoms: _408  and  _410
REMARK  170  A    between atoms: _410  and  _411
REMARK  171  A    between atoms: _410  and  _413
REMARK  172  A    between atoms: _413  and  _414
REMARK  173  A    between atoms: _417  and  _419
REMARK  174  A    between atoms: _419  and  _420
REMARK  175  A    between atoms: _419  and  _422
REMARK  176  A    between atoms: _422  and  _423
REMARK  177  A    between atoms: _429  and  _431
REMARK  178  A    between atoms: _431  and  _432
REMARK  179  A    between atoms: _431  and  _434
REMARK  180  A    between atoms: _434  and  _435
REMARK  181  A    between atoms: _435  and  _436
REMARK  182  A    between atoms: _438  and  _440
REMARK  183  A    between atoms: _440  and  _441
REMARK  184  A    between atoms: _440  and  _443
REMARK  185  A    between atoms: _443  and  _444
REMARK  186  A    between atoms: _450  and  _452
REMARK  187  A    between atoms: _452  and  _453
REMARK  188  A    between atoms: _452  and  _455
REMARK  189  A    between atoms: _455  and  _456
REMARK  190  A    between atoms: _459  and  _461
REMARK  191  A    between atoms: _461  and  _462
REMARK  192  A    between atoms: _461  and  _464
REMARK  193  A    between atoms: _464  and  _465
REMARK  194  A    between atoms: _465  and  _466
REMARK  195  A    between atoms: _471  and  _473
REMARK  196  A    between atoms: _473  and  _474
REMARK  197  A    between atoms: _473  and  _476
REMARK  198  A    between atoms: _476  and  _477
REMARK  199  A    between atoms: _477  and  _478
REMARK  200  A    between atoms: _478  and  _479
REMARK  201  A    between atoms: _479  and  _480
REMARK  202  A    between atoms: _484  and  _486
REMARK  203  A    between atoms: _486  and  _487
REMARK  204  A    between atoms: _486  and  _489
REMARK  205  A    between atoms: _489  and  _490
REMARK  206  A    between atoms: _493  and  _495
REMARK  207  A    between atoms: _495  and  _496
REMARK  208  A    between atoms: _495  and  _498
REMARK  209  A    between atoms: _498  and  _499
REMARK  210  A    between atoms: _504  and  _506
REMARK  211  A    between atoms: _506  and  _507
REMARK  212  A    between atoms: _506  and  _509
REMARK  213  A    between atoms: _509  and  _510
REMARK  214  A    between atoms: _513  and  _515
REMARK  215  A    between atoms: _515  and  _516
REMARK  216  A    between atoms: _515  and  _518
REMARK  217  A    between atoms: _518  and  _519
REMARK  218  A    between atoms: _519  and  _520
REMARK  219  A    between atoms: _520  and  _521
REMARK  220  A    between atoms: _530  and  _532
REMARK  221  A    between atoms: _532  and  _533
REMARK  222  A    between atoms: _532  and  _535
REMARK  223  A    between atoms: _535  and  _536
REMARK  224  A    between atoms: _539  and  _541
REMARK  225  A    between atoms: _541  and  _542
REMARK  226  A    between atoms: _541  and  _544
REMARK  227  A    between atoms: _544  and  _545
REMARK  228  A    between atoms: _545  and  _546
REMARK  229  A    between atoms: _549  and  _551
REMARK  230  A    between atoms: _551  and  _552
REMARK  231  A    between atoms: _551  and  _554
REMARK  232  A    between atoms: _554  and  _555
REMARK  233  A    between atoms: _561  and  _563
REMARK  234  A    between atoms: _563  and  _564
REMARK  235  A    between atoms: _563  and  _566
REMARK  236  A    between atoms: _566  and  _567
REMARK  237  A    between atoms: _571  and  _572
REMARK  238  A    between atoms: _577  and  _579
REMARK  239  A    between atoms: _579  and  _580
REMARK  240  A    between atoms: _579  and  _582
REMARK  241  A    between atoms: _582  and  _583
REMARK  242  A    between atoms: _583  and  _584
REMARK  243  A    between atoms: _589  and  _591
REMARK  244  A    between atoms: _591  and  _592
REMARK  245  A    between atoms: _591  and  _594
REMARK  246  A    between atoms: _597  and  _599
REMARK  247  A    between atoms: _599  and  _600
REMARK  248  A    between atoms: _599  and  _602
REMARK  249  A    between atoms: _602  and  _603
REMARK  250  A    between atoms: _603  and  _604
REMARK  251  A    between atoms: _606  and  _608
REMARK  252  A    between atoms: _608  and  _609
REMARK  253  A    between atoms: _612  and  _614
REMARK  254  A    between atoms: _614  and  _615
REMARK  255  A    between atoms: _614  and  _617
REMARK  256  A    between atoms: _617  and  _618
REMARK  257  A    between atoms: _621  and  _623
REMARK  258  A    between atoms: _623  and  _624
REMARK  259  A    between atoms: _627  and  _629
REMARK  260  A    between atoms: _629  and  _630
REMARK  261  A    between atoms: _629  and  _632
REMARK  262  A    between atoms: _632  and  _633
REMARK  263  A    between atoms: _636  and  _638
REMARK  264  A    between atoms: _638  and  _639
REMARK  265  A    between atoms: _638  and  _641
REMARK  266  A    between atoms: _641  and  _642
REMARK  267  A    between atoms: _645  and  _647
REMARK  268  A    between atoms: _647  and  _648
REMARK  269  A    between atoms: _647  and  _650
REMARK  270  A    between atoms: _650  and  _651
REMARK  271  A    between atoms: _654  and  _656
REMARK  272  A    between atoms: _656  and  _657
REMARK  273  A    between atoms: _656  and  _659
REMARK  274  A    between atoms: _659  and  _660
REMARK  275  A    between atoms: _660  and  _661
REMARK  276  A    between atoms: _666  and  _668
REMARK  277  A    between atoms: _668  and  _669
REMARK  278  A    between atoms: _672  and  _674
REMARK  279  A    between atoms: _674  and  _675
REMARK  280  A    between atoms: _674  and  _677
REMARK  281  A    between atoms: _680  and  _682
REMARK  282  A    between atoms: _682  and  _683
REMARK  283  A    between atoms: _682  and  _685
REMARK  284  A    between atoms: _685  and  _686
REMARK  285  A    between atoms: _689  and  _691
REMARK  286  A    between atoms: _691  and  _692
REMARK  287  A    between atoms: _691  and  _694
REMARK  288  A    between atoms: _694  and  _695
REMARK  289  A    between atoms: _695  and  _696
REMARK                            x       y       z     vdW  Elec       q    Type
REMARK                         _______ _______ _______ _____ _____    ______ ____
ROOT
ATOM      1  O   HOH     1      26.613  56.447  50.516  0.00  0.00    +0.000 OA
ENDROOT
TORSDOF 0
REMARK  Name = ../refined-set-2016/3vjc/3vjc_pocket.pdb
REMARK  289 active torsions:
REMARK  status: ('A' for Active; 'I' for Inactive)
REMARK    1  A    between atoms: _1  and  _3
REMARK    2  A    between atoms: _3  and  _4
REMARK    3  A    between atoms: _3  and  _6
REMARK    4  A    between atoms: _6  and  _7
REMARK    5  A    between atoms: _10  and  _12
REMARK    6  A    between atoms: _12  and  _13
REMARK    7  A    between atoms: _12  and  _15
REMARK    8  A    between atoms: _15  and  _16
REMARK    9  A    between atoms: _21  and  _23
REMARK   10  A    between atoms: _23  and  _24
REMARK   11  A    between atoms: _23  and  _26
REMARK   12  A    between atoms: _26  and  _27
REMARK   13  A    between atoms: _27  and  _28
REMARK   14  A    between atoms: _33  and  _35
REMARK   15  A    between atoms: _35  and  _36
REMARK   16  A    between atoms: _35  and  _38
REMARK   17  A    between atoms: _38  and  _39
REMARK   18  A    between atoms: _42  and  _44
REMARK   19  A    between atoms: _44  and  _45
REMARK   20  A    between atoms: _44  and  _47
REMARK   21  A    between atoms: _47  and  _48
REMARK   22  A    between atoms: _50  and  _52
REMARK   23  A    between atoms: _52  and  _53
REMARK   24  A    between atoms: _52  and  _55
REMARK   25  A    between atoms: _55  and  _56
REMARK   26  A    between atoms: _56  and  _57
REMARK   27  A    between atoms: _57  and  _58
REMARK   28  A    between atoms: _67  and  _69
REMARK   29  A    between atoms: _69  and  _70
REMARK   30  A    between atoms: _69  and  _72
REMARK   31  A    between atoms: _72  and  _73
REMARK   32  A    between atoms: _75  and  _77
REMARK   33  A    between atoms: _77  and  _78
REMARK   34  A    between atoms: _77  and  _80
REMARK   35  A    between atoms: _80  and  _81
REMARK   36  A    between atoms: _87  and  _89
REMARK   37  A    between atoms: _89  and  _90
REMARK   38  A    between atoms: _93  and  _95
REMARK   39  A    between atoms: _95  and  _96
REMARK   40  A    between atoms: _99  and  _101
REMARK   41  A    between atoms: _101  and  _102
REMARK   42  A    between atoms: _101  and  _104
REMARK   43  A    between atoms: _107  and  _109
REMARK   44  A    between atoms: _109  and  _110
REMARK   45  A    between atoms: _109  and  _112
REMARK   46  A    between atoms: _112  and  _113
REMARK   47  A    between atoms: _116  and  _118
REMARK   48  A    between atoms: _118  and  _119
REMARK   49  A    between atoms: _118  and  _121
REMARK   50  A    between atoms: _121  and  _122
REMARK   51  A    between atoms: _125  and  _127
REMARK   52  A    between atoms: _127  and  _128
REMARK   53  A    between atoms: _131  and  _133
REMARK   54  A    between atoms: _133  and  _134
REMARK   55  A    between atoms: _133  and  _136
REMARK   56  A    between atoms: _139  and  _141
REMARK   57  A    between atoms: _141  and  _142
REMARK   58  A    between atoms: _141  and  _144
REMARK   59  A    between atoms: _146  and  _148
REMARK   60  A    between atoms: _148  and  _149
REMARK   61  A    between atoms: _148  and  _151
REMARK   62  A    between atoms: _151  and  _152
REMARK   63  A    between atoms: _155  and  _157
REMARK   64  A    between atoms: _157  and  _158
REMARK   65  A    between atoms: _157  and  _160
REMARK   66  A    between atoms: _160  and  _161
REMARK   67  A    between atoms: _167  and  _169
REMARK   68  A    between atoms: _169  and  _170
REMARK   69  A    between atoms: _169  and  _172
REMARK   70  A    between atoms: _172  and  _173
REMARK   71  A    between atoms: _178  and  _179
REMARK   72  A    between atoms: _181  and  _183
REMARK   73  A    between atoms: _183  and  _184
REMARK   74  A    between atoms: _183  and  _186
REMARK   75  A    between atoms: _186  and  _187
REMARK   76  A    between atoms: _190  and  _192
REMARK   77  A    between atoms: _192  and  _193
REMARK   78  A    between atoms: _192  and  _195
REMARK   79  A    between atoms: _198  and  _200
REMARK   80  A    between atoms: _200  and  _201
REMARK   81  A    between atoms: _200  and  _203
REMARK   82  A    between atoms: _203  and  _204
REMARK   83  A    between atoms: _207  and  _209
REMARK   84  A    between atoms: _209  and  _210
REMARK   85  A    between atoms: _209  and  _212
REMARK   86  A    between atoms: _212  and  _213
REMARK   87  A    between atoms: _213  and  _214
REMARK   88  A    between atoms: _214  and  _215
REMARK   89  A    between atoms: _224  and  _226
REMARK   90  A    between atoms: _226  and  _227
REMARK   91  A    between atoms: _230  and  _232
REMARK   92  A    between atoms: _232  and  _233
REMARK   93  A    between atoms: _232  and  _235
REMARK   94  A    between atoms: _235  and  _236
REMARK   95  A    between atoms: _239  and  _241
REMARK   96  A    between atoms: _241  and  _242
REMARK   97  A    between atoms: _241  and  _244
REMARK   98  A    between atoms: _244  and  _245
REMARK   99  A    between atoms: _248  and  _250
REMARK  100  A    between atoms: _250  and  _251
REMARK  101  A    between atoms: _250  and  _253
REMARK  102  A    between atoms: _253  and  _254
REMARK  103  A    between atoms: _257  and  _259
REMARK  104  A    between atoms: _259  and  _260
REMARK  105  A    between atoms: _259  and  _262
REMARK  106  A    between atoms: _262  and  _263
REMARK  107  A    between atoms: _263  and  _264
REMARK  108  A    between atoms: _267  and  _269
REMARK  109  A    between atoms: _269  and  _270
REMARK  110  A    between atoms: _269  and  _272
REMARK  111  A    between atoms: _272  and  _273
REMARK  112  A    between atoms: _276  and  _278
REMARK  113  A    between atoms: _278  and  _279
REMARK  114  A    between atoms: _278  and  _281
REMARK  115  A    between atoms: _281  and  _282
REMARK  116  A    between atoms: _282  and  _283
REMARK  117  A    between atoms: _283  and  _284
REMARK  118  A    between atoms: _284  and  _285
REMARK  119  A    between atoms: _289  and  _291
REMARK  120  A    between atoms: _291  and  _292
REMARK  121  A    between atoms: _291  and  _294
REMARK  122  A    between atoms: _294  and  _295
REMARK  123  A    between atoms: _298  and  _300
REMARK  124  A    between atoms: _300  and  _301
REMARK  125  A    between atoms: _300  and  _303
REMARK  126  A    between atoms: _303  and  _304
REMARK  127  A    between atoms: _307  and  _309
REMARK  128  A    between atoms: _309  and  _310
REMARK  129  A    between atoms: _309  and  _312
REMARK  130  A    between atoms: _312  and  _313
REMARK  131  A    between atoms: _313  and  _314
REMARK  132  A    between atoms: _316  and  _318
REMARK  133  A    between atoms: _318  and  _319
REMARK  134  A    between atoms: _318  and  _321
REMARK  135  A    between atoms: _321  and  _322
REMARK  136  A    between atoms: _322  and  _323
REMARK  137  A    between atoms: _325  and  _327
REMARK  138  A    between atoms: _327  and  _328
REMARK  139  A    between atoms: _327  and  _330
REMARK  140  A    between atoms: _330  and  _331
REMARK  141  A    between atoms: _336  and  _337
REMARK  142  A    between atoms: _339  and  _341
REMARK  143  A    between atoms: _341  and  _342
REMARK  144  A    between atoms: _341  and  _344
REMARK  145  A    between atoms: _344  and  _345
REMARK  146  A    between atoms: _350  and  _351
REMARK  147  A    between atoms: _353  and  _355
REMARK  148  A    between atoms: _355  and  _356
REMARK  149  A    between atoms: _355  and  _358
REMARK  150  A    between atoms: _361  and  _363
REMARK  151  A    between atoms: _363  and  _364
REMARK  152  A    between atoms: _367  and  _369
REMARK  153  A    between atoms: _369  and  _370
REMARK  154  A    between atoms: _372  and  _374
REMARK  155  A    between atoms: _374  and  _375
REMARK  156  A    between atoms: _374  and  _377
REMARK  157  A    between atoms: _377  and  _378
REMARK  158  A    between atoms: _381  and  _383
REMARK  159  A    between atoms: _383  and  _384
REMARK  160  A    between atoms: _383  and  _386
REMARK  161  A    between atoms: _389  and  _391
REMARK  162  A    between atoms: _391  and  _392
REMARK  163  A    between atoms: _394  and  _396
REMARK  164  A    between atoms: _396  and  _397
REMARK  165  A    between atoms: _399  and  _401
REMARK  166  A    between atoms: _401  and  _402
REMARK  167  A    between atoms: _401  and  _404
REMARK  168  A    between atoms: _404  and  _405
REMARK  169  A    between atoms: _408  and  _410
REMARK  170  A    between atoms: _410  and  _411
REMARK  171  A    between atoms: _410  and  _413
REMARK  172  A    between atoms: _413  and  _414
REMARK  173  A    between atoms: _417  and  _419
REMARK  174  A    between atoms: _419  and  _420
REMARK  175  A    between atoms: _419  and  _422
REMARK  176  A    between atoms: _422  and  _423
REMARK  177  A    between atoms: _429  and  _431
REMARK  178  A    between atoms: _431  and  _432
REMARK  179  A    between atoms: _431  and  _434
REMARK  180  A    between atoms: _434  and  _435
REMARK  181  A    between atoms: _435  and  _436
REMARK  182  A    between atoms: _438  and  _440
REMARK  183  A    between atoms: _440  and  _441
REMARK  184  A    between atoms: _440  and  _443
REMARK  185  A    between atoms: _443  and  _444
REMARK  186  A    between atoms: _450  and  _452
REMARK  187  A    between atoms: _452  and  _453
REMARK  188  A    between atoms: _452  and  _455
REMARK  189  A    between atoms: _455  and  _456
REMARK  190  A    between atoms: _459  and  _461
REMARK  191  A    between atoms: _461  and  _462
REMARK  192  A    between atoms: _461  and  _464
REMARK  193  A    between atoms: _464  and  _465
REMARK  194  A    between atoms: _465  and  _466
REMARK  195  A    between atoms: _471  and  _473
REMARK  196  A    between atoms: _473  and  _474
REMARK  197  A    between atoms: _473  and  _476
REMARK  198  A    between atoms: _476  and  _477
REMARK  199  A    between atoms: _477  and  _478
REMARK  200  A    between atoms: _478  and  _479
REMARK  201  A    between atoms: _479  and  _480
REMARK  202  A    between atoms: _484  and  _486
REMARK  203  A    between atoms: _486  and  _487
REMARK  204  A    between atoms: _486  and  _489
REMARK  205  A    between atoms: _489  and  _490
REMARK  206  A    between atoms: _493  and  _495
REMARK  207  A    between atoms: _495  and  _496
REMARK  208  A    between atoms: _495  and  _498
REMARK  209  A    between atoms: _498  and  _499
REMARK  210  A    between atoms: _504  and  _506
REMARK  211  A    between atoms: _506  and  _507
REMARK  212  A    between atoms: _506  and  _509
REMARK  213  A    between atoms: _509  and  _510
REMARK  214  A    between atoms: _513  and  _515
REMARK  215  A    between atoms: _515  and  _516
REMARK  216  A    between atoms: _515  and  _518
REMARK  217  A    between atoms: _518  and  _519
REMARK  218  A    between atoms: _519  and  _520
REMARK  219  A    between atoms: _520  and  _521
REMARK  220  A    between atoms: _530  and  _532
REMARK  221  A    between atoms: _532  and  _533
REMARK  222  A    between atoms: _532  and  _535
REMARK  223  A    between atoms: _535  and  _536
REMARK  224  A    between atoms: _539  and  _541
REMARK  225  A    between atoms: _541  and  _542
REMARK  226  A    between atoms: _541  and  _544
REMARK  227  A    between atoms: _544  and  _545
REMARK  228  A    between atoms: _545  and  _546
REMARK  229  A    between atoms: _549  and  _551
REMARK  230  A    between atoms: _551  and  _552
REMARK  231  A    between atoms: _551  and  _554
REMARK  232  A    between atoms: _554  and  _555
REMARK  233  A    between atoms: _561  and  _563
REMARK  234  A    between atoms: _563  and  _564
REMARK  235  A    between atoms: _563  and  _566
REMARK  236  A    between atoms: _566  and  _567
REMARK  237  A    between atoms: _571  and  _572
REMARK  238  A    between atoms: _577  and  _579
REMARK  239  A    between atoms: _579  and  _580
REMARK  240  A    between atoms: _579  and  _582
REMARK  241  A    between atoms: _582  and  _583
REMARK  242  A    between atoms: _583  and  _584
REMARK  243  A    between atoms: _589  and  _591
REMARK  244  A    between atoms: _591  and  _592
REMARK  245  A    between atoms: _591  and  _594
REMARK  246  A    between atoms: _597  and  _599
REMARK  247  A    between atoms: _599  and  _600
REMARK  248  A    between atoms: _599  and  _602
REMARK  249  A    between atoms: _602  and  _603
REMARK  250  A    between atoms: _603  and  _604
REMARK  251  A    between atoms: _606  and  _608
REMARK  252  A    between atoms: _608  and  _609
REMARK  253  A    between atoms: _612  and  _614
REMARK  254  A    between atoms: _614  and  _615
REMARK  255  A    between atoms: _614  and  _617
REMARK  256  A    between atoms: _617  and  _618
REMARK  257  A    between atoms: _621  and  _623
REMARK  258  A    between atoms: _623  and  _624
REMARK  259  A    between atoms: _627  and  _629
REMARK  260  A    between atoms: _629  and  _630
REMARK  261  A    between atoms: _629  and  _632
REMARK  262  A    between atoms: _632  and  _633
REMARK  263  A    between atoms: _636  and  _638
REMARK  264  A    between atoms: _638  and  _639
REMARK  265  A    between atoms: _638  and  _641
REMARK  266  A    between atoms: _641  and  _642
REMARK  267  A    between atoms: _645  and  _647
REMARK  268  A    between atoms: _647  and  _648
REMARK  269  A    between atoms: _647  and  _650
REMARK  270  A    between atoms: _650  and  _651
REMARK  271  A    between atoms: _654  and  _656
REMARK  272  A    between atoms: _656  and  _657
REMARK  273  A    between atoms: _656  and  _659
REMARK  274  A    between atoms: _659  and  _660
REMARK  275  A    between atoms: _660  and  _661
REMARK  276  A    between atoms: _666  and  _668
REMARK  277  A    between atoms: _668  and  _669
REMARK  278  A    between atoms: _672  and  _674
REMARK  279  A    between atoms: _674  and  _675
REMARK  280  A    between atoms: _674  and  _677
REMARK  281  A    between atoms: _680  and  _682
REMARK  282  A    between atoms: _682  and  _683
REMARK  283  A    between atoms: _682  and  _685
REMARK  284  A    between atoms: _685  and  _686
REMARK  285  A    between atoms: _689  and  _691
REMARK  286  A    between atoms: _691  and  _692
REMARK  287  A    between atoms: _691  and  _694
REMARK  288  A    between atoms: _694  and  _695
REMARK  289  A    between atoms: _695  and  _696
REMARK                            x       y       z     vdW  Elec       q    Type
REMARK                         _______ _______ _______ _____ _____    ______ ____
ROOT
ATOM      1  O   HOH     1      21.462  56.446  56.091  0.00  0.00    +0.000 OA
ENDROOT
TORSDOF 0
REMARK  Name = ../refined-set-2016/3vjc/3vjc_pocket.pdb
REMARK  289 active torsions:
REMARK  status: ('A' for Active; 'I' for Inactive)
REMARK    1  A    between atoms: _1  and  _3
REMARK    2  A    between atoms: _3  and  _4
REMARK    3  A    between atoms: _3  and  _6
REMARK    4  A    between atoms: _6  and  _7
REMARK    5  A    between atoms: _10  and  _12
REMARK    6  A    between atoms: _12  and  _13
REMARK    7  A    between atoms: _12  and  _15
REMARK    8  A    between atoms: _15  and  _16
REMARK    9  A    between atoms: _21  and  _23
REMARK   10  A    between atoms: _23  and  _24
REMARK   11  A    between atoms: _23  and  _26
REMARK   12  A    between atoms: _26  and  _27
REMARK   13  A    between atoms: _27  and  _28
REMARK   14  A    between atoms: _33  and  _35
REMARK   15  A    between atoms: _35  and  _36
REMARK   16  A    between atoms: _35  and  _38
REMARK   17  A    between atoms: _38  and  _39
REMARK   18  A    between atoms: _42  and  _44
REMARK   19  A    between atoms: _44  and  _45
REMARK   20  A    between atoms: _44  and  _47
REMARK   21  A    between atoms: _47  and  _48
REMARK   22  A    between atoms: _50  and  _52
REMARK   23  A    between atoms: _52  and  _53
REMARK   24  A    between atoms: _52  and  _55
REMARK   25  A    between atoms: _55  and  _56
REMARK   26  A    between atoms: _56  and  _57
REMARK   27  A    between atoms: _57  and  _58
REMARK   28  A    between atoms: _67  and  _69
REMARK   29  A    between atoms: _69  and  _70
REMARK   30  A    between atoms: _69  and  _72
REMARK   31  A    between atoms: _72  and  _73
REMARK   32  A    between atoms: _75  and  _77
REMARK   33  A    between atoms: _77  and  _78
REMARK   34  A    between atoms: _77  and  _80
REMARK   35  A    between atoms: _80  and  _81
REMARK   36  A    between atoms: _87  and  _89
REMARK   37  A    between atoms: _89  and  _90
REMARK   38  A    between atoms: _93  and  _95
REMARK   39  A    between atoms: _95  and  _96
REMARK   40  A    between atoms: _99  and  _101
REMARK   41  A    between atoms: _101  and  _102
REMARK   42  A    between atoms: _101  and  _104
REMARK   43  A    between atoms: _107  and  _109
REMARK   44  A    between atoms: _109  and  _110
REMARK   45  A    between atoms: _109  and  _112
REMARK   46  A    between atoms: _112  and  _113
REMARK   47  A    between atoms: _116  and  _118
REMARK   48  A    between atoms: _118  and  _119
REMARK   49  A    between atoms: _118  and  _121
REMARK   50  A    between atoms: _121  and  _122
REMARK   51  A    between atoms: _125  and  _127
REMARK   52  A    between atoms: _127  and  _128
REMARK   53  A    between atoms: _131  and  _133
REMARK   54  A    between atoms: _133  and  _134
REMARK   55  A    between atoms: _133  and  _136
REMARK   56  A    between atoms: _139  and  _141
REMARK   57  A    between atoms: _141  and  _142
REMARK   58  A    between atoms: _141  and  _144
REMARK   59  A    between atoms: _146  and  _148
REMARK   60  A    between atoms: _148  and  _149
REMARK   61  A    between atoms: _148  and  _151
REMARK   62  A    between atoms: _151  and  _152
REMARK   63  A    between atoms: _155  and  _157
REMARK   64  A    between atoms: _157  and  _158
REMARK   65  A    between atoms: _157  and  _160
REMARK   66  A    between atoms: _160  and  _161
REMARK   67  A    between atoms: _167  and  _169
REMARK   68  A    between atoms: _169  and  _170
REMARK   69  A    between atoms: _169  and  _172
REMARK   70  A    between atoms: _172  and  _173
REMARK   71  A    between atoms: _178  and  _179
REMARK   72  A    between atoms: _181  and  _183
REMARK   73  A    between atoms: _183  and  _184
REMARK   74  A    between atoms: _183  and  _186
REMARK   75  A    between atoms: _186  and  _187
REMARK   76  A    between atoms: _190  and  _192
REMARK   77  A    between atoms: _192  and  _193
REMARK   78  A    between atoms: _192  and  _195
REMARK   79  A    between atoms: _198  and  _200
REMARK   80  A    between atoms: _200  and  _201
REMARK   81  A    between atoms: _200  and  _203
REMARK   82  A    between atoms: _203  and  _204
REMARK   83  A    between atoms: _207  and  _209
REMARK   84  A    between atoms: _209  and  _210
REMARK   85  A    between atoms: _209  and  _212
REMARK   86  A    between atoms: _212  and  _213
REMARK   87  A    between atoms: _213  and  _214
REMARK   88  A    between atoms: _214  and  _215
REMARK   89  A    between atoms: _224  and  _226
REMARK   90  A    between atoms: _226  and  _227
REMARK   91  A    between atoms: _230  and  _232
REMARK   92  A    between atoms: _232  and  _233
REMARK   93  A    between atoms: _232  and  _235
REMARK   94  A    between atoms: _235  and  _236
REMARK   95  A    between atoms: _239  and  _241
REMARK   96  A    between atoms: _241  and  _242
REMARK   97  A    between atoms: _241  and  _244
REMARK   98  A    between atoms: _244  and  _245
REMARK   99  A    between atoms: _248  and  _250
REMARK  100  A    between atoms: _250  and  _251
REMARK  101  A    between atoms: _250  and  _253
REMARK  102  A    between atoms: _253  and  _254
REMARK  103  A    between atoms: _257  and  _259
REMARK  104  A    between atoms: _259  and  _260
REMARK  105  A    between atoms: _259  and  _262
REMARK  106  A    between atoms: _262  and  _263
REMARK  107  A    between atoms: _263  and  _264
REMARK  108  A    between atoms: _267  and  _269
REMARK  109  A    between atoms: _269  and  _270
REMARK  110  A    between atoms: _269  and  _272
REMARK  111  A    between atoms: _272  and  _273
REMARK  112  A    between atoms: _276  and  _278
REMARK  113  A    between atoms: _278  and  _279
REMARK  114  A    between atoms: _278  and  _281
REMARK  115  A    between atoms: _281  and  _282
REMARK  116  A    between atoms: _282  and  _283
REMARK  117  A    between atoms: _283  and  _284
REMARK  118  A    between atoms: _284  and  _285
REMARK  119  A    between atoms: _289  and  _291
REMARK  120  A    between atoms: _291  and  _292
REMARK  121  A    between atoms: _291  and  _294
REMARK  122  A    between atoms: _294  and  _295
REMARK  123  A    between atoms: _298  and  _300
REMARK  124  A    between atoms: _300  and  _301
REMARK  125  A    between atoms: _300  and  _303
REMARK  126  A    between atoms: _303  and  _304
REMARK  127  A    between atoms: _307  and  _309
REMARK  128  A    between atoms: _309  and  _310
REMARK  129  A    between atoms: _309  and  _312
REMARK  130  A    between atoms: _312  and  _313
REMARK  131  A    between atoms: _313  and  _314
REMARK  132  A    between atoms: _316  and  _318
REMARK  133  A    between atoms: _318  and  _319
REMARK  134  A    between atoms: _318  and  _321
REMARK  135  A    between atoms: _321  and  _322
REMARK  136  A    between atoms: _322  and  _323
REMARK  137  A    between atoms: _325  and  _327
REMARK  138  A    between atoms: _327  and  _328
REMARK  139  A    between atoms: _327  and  _330
REMARK  140  A    between atoms: _330  and  _331
REMARK  141  A    between atoms: _336  and  _337
REMARK  142  A    between atoms: _339  and  _341
REMARK  143  A    between atoms: _341  and  _342
REMARK  144  A    between atoms: _341  and  _344
REMARK  145  A    between atoms: _344  and  _345
REMARK  146  A    between atoms: _350  and  _351
REMARK  147  A    between atoms: _353  and  _355
REMARK  148  A    between atoms: _355  and  _356
REMARK  149  A    between atoms: _355  and  _358
REMARK  150  A    between atoms: _361  and  _363
REMARK  151  A    between atoms: _363  and  _364
REMARK  152  A    between atoms: _367  and  _369
REMARK  153  A    between atoms: _369  and  _370
REMARK  154  A    between atoms: _372  and  _374
REMARK  155  A    between atoms: _374  and  _375
REMARK  156  A    between atoms: _374  and  _377
REMARK  157  A    between atoms: _377  and  _378
REMARK  158  A    between atoms: _381  and  _383
REMARK  159  A    between atoms: _383  and  _384
REMARK  160  A    between atoms: _383  and  _386
REMARK  161  A    between atoms: _389  and  _391
REMARK  162  A    between atoms: _391  and  _392
REMARK  163  A    between atoms: _394  and  _396
REMARK  164  A    between atoms: _396  and  _397
REMARK  165  A    between atoms: _399  and  _401
REMARK  166  A    between atoms: _401  and  _402
REMARK  167  A    between atoms: _401  and  _404
REMARK  168  A    between atoms: _404  and  _405
REMARK  169  A    between atoms: _408  and  _410
REMARK  170  A    between atoms: _410  and  _411
REMARK  171  A    between atoms: _410  and  _413
REMARK  172  A    between atoms: _413  and  _414
REMARK  173  A    between atoms: _417  and  _419
REMARK  174  A    between atoms: _419  and  _420
REMARK  175  A    between atoms: _419  and  _422
REMARK  176  A    between atoms: _422  and  _423
REMARK  177  A    between atoms: _429  and  _431
REMARK  178  A    between atoms: _431  and  _432
REMARK  179  A    between atoms: _431  and  _434
REMARK  180  A    between atoms: _434  and  _435
REMARK  181  A    between atoms: _435  and  _436
REMARK  182  A    between atoms: _438  and  _440
REMARK  183  A    between atoms: _440  and  _441
REMARK  184  A    between atoms: _440  and  _443
REMARK  185  A    between atoms: _443  and  _444
REMARK  186  A    between atoms: _450  and  _452
REMARK  187  A    between atoms: _452  and  _453
REMARK  188  A    between atoms: _452  and  _455
REMARK  189  A    between atoms: _455  and  _456
REMARK  190  A    between atoms: _459  and  _461
REMARK  191  A    between atoms: _461  and  _462
REMARK  192  A    between atoms: _461  and  _464
REMARK  193  A    between atoms: _464  and  _465
REMARK  194  A    between atoms: _465  and  _466
REMARK  195  A    between atoms: _471  and  _473
REMARK  196  A    between atoms: _473  and  _474
REMARK  197  A    between atoms: _473  and  _476
REMARK  198  A    between atoms: _476  and  _477
REMARK  199  A    between atoms: _477  and  _478
REMARK  200  A    between atoms: _478  and  _479
REMARK  201  A    between atoms: _479  and  _480
REMARK  202  A    between atoms: _484  and  _486
REMARK  203  A    between atoms: _486  and  _487
REMARK  204  A    between atoms: _486  and  _489
REMARK  205  A    between atoms: _489  and  _490
REMARK  206  A    between atoms: _493  and  _495
REMARK  207  A    between atoms: _495  and  _496
REMARK  208  A    between atoms: _495  and  _498
REMARK  209  A    between atoms: _498  and  _499
REMARK  210  A    between atoms: _504  and  _506
REMARK  211  A    between atoms: _506  and  _507
REMARK  212  A    between atoms: _506  and  _509
REMARK  213  A    between atoms: _509  and  _510
REMARK  214  A    between atoms: _513  and  _515
REMARK  215  A    between atoms: _515  and  _516
REMARK  216  A    between atoms: _515  and  _518
REMARK  217  A    between atoms: _518  and  _519
REMARK  218  A    between atoms: _519  and  _520
REMARK  219  A    between atoms: _520  and  _521
REMARK  220  A    between atoms: _530  and  _532
REMARK  221  A    between atoms: _532  and  _533
REMARK  222  A    between atoms: _532  and  _535
REMARK  223  A    between atoms: _535  and  _536
REMARK  224  A    between atoms: _539  and  _541
REMARK  225  A    between atoms: _541  and  _542
REMARK  226  A    between atoms: _541  and  _544
REMARK  227  A    between atoms: _544  and  _545
REMARK  228  A    between atoms: _545  and  _546
REMARK  229  A    between atoms: _549  and  _551
REMARK  230  A    between atoms: _551  and  _552
REMARK  231  A    between atoms: _551  and  _554
REMARK  232  A    between atoms: _554  and  _555
REMARK  233  A    between atoms: _561  and  _563
REMARK  234  A    between atoms: _563  and  _564
REMARK  235  A    between atoms: _563  and  _566
REMARK  236  A    between atoms: _566  and  _567
REMARK  237  A    between atoms: _571  and  _572
REMARK  238  A    between atoms: _577  and  _579
REMARK  239  A    between atoms: _579  and  _580
REMARK  240  A    between atoms: _579  and  _582
REMARK  241  A    between atoms: _582  and  _583
REMARK  242  A    between atoms: _583  and  _584
REMARK  243  A    between atoms: _589  and  _591
REMARK  244  A    between atoms: _591  and  _592
REMARK  245  A    between atoms: _591  and  _594
REMARK  246  A    between atoms: _597  and  _599
REMARK  247  A    between atoms: _599  and  _600
REMARK  248  A    between atoms: _599  and  _602
REMARK  249  A    between atoms: _602  and  _603
REMARK  250  A    between atoms: _603  and  _604
REMARK  251  A    between atoms: _606  and  _608
REMARK  252  A    between atoms: _608  and  _609
REMARK  253  A    between atoms: _612  and  _614
REMARK  254  A    between atoms: _614  and  _615
REMARK  255  A    between atoms: _614  and  _617
REMARK  256  A    between atoms: _617  and  _618
REMARK  257  A    between atoms: _621  and  _623
REMARK  258  A    between atoms: _623  and  _624
REMARK  259  A    between atoms: _627  and  _629
REMARK  260  A    between atoms: _629  and  _630
REMARK  261  A    between atoms: _629  and  _632
REMARK  262  A    between atoms: _632  and  _633
REMARK  263  A    between atoms: _636  and  _638
REMARK  264  A    between atoms: _638  and  _639
REMARK  265  A    between atoms: _638  and  _641
REMARK  266  A    between atoms: _641  and  _642
REMARK  267  A    between atoms: _645  and  _647
REMARK  268  A    between atoms: _647  and  _648
REMARK  269  A    between atoms: _647  and  _650
REMARK  270  A    between atoms: _650  and  _651
REMARK  271  A    between atoms: _654  and  _656
REMARK  272  A    between atoms: _656  and  _657
REMARK  273  A    between atoms: _656  and  _659
REMARK  274  A    between atoms: _659  and  _660
REMARK  275  A    between atoms: _660  and  _661
REMARK  276  A    between atoms: _666  and  _668
REMARK  277  A    between atoms: _668  and  _669
REMARK  278  A    between atoms: _672  and  _674
REMARK  279  A    between atoms: _674  and  _675
REMARK  280  A    between atoms: _674  and  _677
REMARK  281  A    between atoms: _680  and  _682
REMARK  282  A    between atoms: _682  and  _683
REMARK  283  A    between atoms: _682  and  _685
REMARK  284  A    between atoms: _685  and  _686
REMARK  285  A    between atoms: _689  and  _691
REMARK  286  A    between atoms: _691  and  _692
REMARK  287  A    between atoms: _691  and  _694
REMARK  288  A    between atoms: _694  and  _695
REMARK  289  A    between atoms: _695  and  _696
REMARK                            x       y       z     vdW  Elec       q    Type
REMARK                         _______ _______ _______ _____ _____    ______ ____
ROOT
ATOM      1  O   HOH     1      16.397  63.984  57.107  0.00  0.00    +0.000 OA
ENDROOT
TORSDOF 0
REMARK  Name = ../refined-set-2016/3vjc/3vjc_pocket.pdb
REMARK  289 active torsions:
REMARK  status: ('A' for Active; 'I' for Inactive)
REMARK    1  A    between atoms: _1  and  _3
REMARK    2  A    between atoms: _3  and  _4
REMARK    3  A    between atoms: _3  and  _6
REMARK    4  A    between atoms: _6  and  _7
REMARK    5  A    between atoms: _10  and  _12
REMARK    6  A    between atoms: _12  and  _13
REMARK    7  A    between atoms: _12  and  _15
REMARK    8  A    between atoms: _15  and  _16
REMARK    9  A    between atoms: _21  and  _23
REMARK   10  A    between atoms: _23  and  _24
REMARK   11  A    between atoms: _23  and  _26
REMARK   12  A    between atoms: _26  and  _27
REMARK   13  A    between atoms: _27  and  _28
REMARK   14  A    between atoms: _33  and  _35
REMARK   15  A    between atoms: _35  and  _36
REMARK   16  A    between atoms: _35  and  _38
REMARK   17  A    between atoms: _38  and  _39
REMARK   18  A    between atoms: _42  and  _44
REMARK   19  A    between atoms: _44  and  _45
REMARK   20  A    between atoms: _44  and  _47
REMARK   21  A    between atoms: _47  and  _48
REMARK   22  A    between atoms: _50  and  _52
REMARK   23  A    between atoms: _52  and  _53
REMARK   24  A    between atoms: _52  and  _55
REMARK   25  A    between atoms: _55  and  _56
REMARK   26  A    between atoms: _56  and  _57
REMARK   27  A    between atoms: _57  and  _58
REMARK   28  A    between atoms: _67  and  _69
REMARK   29  A    between atoms: _69  and  _70
REMARK   30  A    between atoms: _69  and  _72
REMARK   31  A    between atoms: _72  and  _73
REMARK   32  A    between atoms: _75  and  _77
REMARK   33  A    between atoms: _77  and  _78
REMARK   34  A    between atoms: _77  and  _80
REMARK   35  A    between atoms: _80  and  _81
REMARK   36  A    between atoms: _87  and  _89
REMARK   37  A    between atoms: _89  and  _90
REMARK   38  A    between atoms: _93  and  _95
REMARK   39  A    between atoms: _95  and  _96
REMARK   40  A    between atoms: _99  and  _101
REMARK   41  A    between atoms: _101  and  _102
REMARK   42  A    between atoms: _101  and  _104
REMARK   43  A    between atoms: _107  and  _109
REMARK   44  A    between atoms: _109  and  _110
REMARK   45  A    between atoms: _109  and  _112
REMARK   46  A    between atoms: _112  and  _113
REMARK   47  A    between atoms: _116  and  _118
REMARK   48  A    between atoms: _118  and  _119
REMARK   49  A    between atoms: _118  and  _121
REMARK   50  A    between atoms: _121  and  _122
REMARK   51  A    between atoms: _125  and  _127
REMARK   52  A    between atoms: _127  and  _128
REMARK   53  A    between atoms: _131  and  _133
REMARK   54  A    between atoms: _133  and  _134
REMARK   55  A    between atoms: _133  and  _136
REMARK   56  A    between atoms: _139  and  _141
REMARK   57  A    between atoms: _141  and  _142
REMARK   58  A    between atoms: _141  and  _144
REMARK   59  A    between atoms: _146  and  _148
REMARK   60  A    between atoms: _148  and  _149
REMARK   61  A    between atoms: _148  and  _151
REMARK   62  A    between atoms: _151  and  _152
REMARK   63  A    between atoms: _155  and  _157
REMARK   64  A    between atoms: _157  and  _158
REMARK   65  A    between atoms: _157  and  _160
REMARK   66  A    between atoms: _160  and  _161
REMARK   67  A    between atoms: _167  and  _169
REMARK   68  A    between atoms: _169  and  _170
REMARK   69  A    between atoms: _169  and  _172
REMARK   70  A    between atoms: _172  and  _173
REMARK   71  A    between atoms: _178  and  _179
REMARK   72  A    between atoms: _181  and  _183
REMARK   73  A    between atoms: _183  and  _184
REMARK   74  A    between atoms: _183  and  _186
REMARK   75  A    between atoms: _186  and  _187
REMARK   76  A    between atoms: _190  and  _192
REMARK   77  A    between atoms: _192  and  _193
REMARK   78  A    between atoms: _192  and  _195
REMARK   79  A    between atoms: _198  and  _200
REMARK   80  A    between atoms: _200  and  _201
REMARK   81  A    between atoms: _200  and  _203
REMARK   82  A    between atoms: _203  and  _204
REMARK   83  A    between atoms: _207  and  _209
REMARK   84  A    between atoms: _209  and  _210
REMARK   85  A    between atoms: _209  and  _212
REMARK   86  A    between atoms: _212  and  _213
REMARK   87  A    between atoms: _213  and  _214
REMARK   88  A    between atoms: _214  and  _215
REMARK   89  A    between atoms: _224  and  _226
REMARK   90  A    between atoms: _226  and  _227
REMARK   91  A    between atoms: _230  and  _232
REMARK   92  A    between atoms: _232  and  _233
REMARK   93  A    between atoms: _232  and  _235
REMARK   94  A    between atoms: _235  and  _236
REMARK   95  A    between atoms: _239  and  _241
REMARK   96  A    between atoms: _241  and  _242
REMARK   97  A    between atoms: _241  and  _244
REMARK   98  A    between atoms: _244  and  _245
REMARK   99  A    between atoms: _248  and  _250
REMARK  100  A    between atoms: _250  and  _251
REMARK  101  A    between atoms: _250  and  _253
REMARK  102  A    between atoms: _253  and  _254
REMARK  103  A    between atoms: _257  and  _259
REMARK  104  A    between atoms: _259  and  _260
REMARK  105  A    between atoms: _259  and  _262
REMARK  106  A    between atoms: _262  and  _263
REMARK  107  A    between atoms: _263  and  _264
REMARK  108  A    between atoms: _267  and  _269
REMARK  109  A    between atoms: _269  and  _270
REMARK  110  A    between atoms: _269  and  _272
REMARK  111  A    between atoms: _272  and  _273
REMARK  112  A    between atoms: _276  and  _278
REMARK  113  A    between atoms: _278  and  _279
REMARK  114  A    between atoms: _278  and  _281
REMARK  115  A    between atoms: _281  and  _282
REMARK  116  A    between atoms: _282  and  _283
REMARK  117  A    between atoms: _283  and  _284
REMARK  118  A    between atoms: _284  and  _285
REMARK  119  A    between atoms: _289  and  _291
REMARK  120  A    between atoms: _291  and  _292
REMARK  121  A    between atoms: _291  and  _294
REMARK  122  A    between atoms: _294  and  _295
REMARK  123  A    between atoms: _298  and  _300
REMARK  124  A    between atoms: _300  and  _301
REMARK  125  A    between atoms: _300  and  _303
REMARK  126  A    between atoms: _303  and  _304
REMARK  127  A    between atoms: _307  and  _309
REMARK  128  A    between atoms: _309  and  _310
REMARK  129  A    between atoms: _309  and  _312
REMARK  130  A    between atoms: _312  and  _313
REMARK  131  A    between atoms: _313  and  _314
REMARK  132  A    between atoms: _316  and  _318
REMARK  133  A    between atoms: _318  and  _319
REMARK  134  A    between atoms: _318  and  _321
REMARK  135  A    between atoms: _321  and  _322
REMARK  136  A    between atoms: _322  and  _323
REMARK  137  A    between atoms: _325  and  _327
REMARK  138  A    between atoms: _327  and  _328
REMARK  139  A    between atoms: _327  and  _330
REMARK  140  A    between atoms: _330  and  _331
REMARK  141  A    between atoms: _336  and  _337
REMARK  142  A    between atoms: _339  and  _341
REMARK  143  A    between atoms: _341  and  _342
REMARK  144  A    between atoms: _341  and  _344
REMARK  145  A    between atoms: _344  and  _345
REMARK  146  A    between atoms: _350  and  _351
REMARK  147  A    between atoms: _353  and  _355
REMARK  148  A    between atoms: _355  and  _356
REMARK  149  A    between atoms: _355  and  _358
REMARK  150  A    between atoms: _361  and  _363
REMARK  151  A    between atoms: _363  and  _364
REMARK  152  A    between atoms: _367  and  _369
REMARK  153  A    between atoms: _369  and  _370
REMARK  154  A    between atoms: _372  and  _374
REMARK  155  A    between atoms: _374  and  _375
REMARK  156  A    between atoms: _374  and  _377
REMARK  157  A    between atoms: _377  and  _378
REMARK  158  A    between atoms: _381  and  _383
REMARK  159  A    between atoms: _383  and  _384
REMARK  160  A    between atoms: _383  and  _386
REMARK  161  A    between atoms: _389  and  _391
REMARK  162  A    between atoms: _391  and  _392
REMARK  163  A    between atoms: _394  and  _396
REMARK  164  A    between atoms: _396  and  _397
REMARK  165  A    between atoms: _399  and  _401
REMARK  166  A    between atoms: _401  and  _402
REMARK  167  A    between atoms: _401  and  _404
REMARK  168  A    between atoms: _404  and  _405
REMARK  169  A    between atoms: _408  and  _410
REMARK  170  A    between atoms: _410  and  _411
REMARK  171  A    between atoms: _410  and  _413
REMARK  172  A    between atoms: _413  and  _414
REMARK  173  A    between atoms: _417  and  _419
REMARK  174  A    between atoms: _419  and  _420
REMARK  175  A    between atoms: _419  and  _422
REMARK  176  A    between atoms: _422  and  _423
REMARK  177  A    between atoms: _429  and  _431
REMARK  178  A    between atoms: _431  and  _432
REMARK  179  A    between atoms: _431  and  _434
REMARK  180  A    between atoms: _434  and  _435
REMARK  181  A    between atoms: _435  and  _436
REMARK  182  A    between atoms: _438  and  _440
REMARK  183  A    between atoms: _440  and  _441
REMARK  184  A    between atoms: _440  and  _443
REMARK  185  A    between atoms: _443  and  _444
REMARK  186  A    between atoms: _450  and  _452
REMARK  187  A    between atoms: _452  and  _453
REMARK  188  A    between atoms: _452  and  _455
REMARK  189  A    between atoms: _455  and  _456
REMARK  190  A    between atoms: _459  and  _461
REMARK  191  A    between atoms: _461  and  _462
REMARK  192  A    between atoms: _461  and  _464
REMARK  193  A    between atoms: _464  and  _465
REMARK  194  A    between atoms: _465  and  _466
REMARK  195  A    between atoms: _471  and  _473
REMARK  196  A    between atoms: _473  and  _474
REMARK  197  A    between atoms: _473  and  _476
REMARK  198  A    between atoms: _476  and  _477
REMARK  199  A    between atoms: _477  and  _478
REMARK  200  A    between atoms: _478  and  _479
REMARK  201  A    between atoms: _479  and  _480
REMARK  202  A    between atoms: _484  and  _486
REMARK  203  A    between atoms: _486  and  _487
REMARK  204  A    between atoms: _486  and  _489
REMARK  205  A    between atoms: _489  and  _490
REMARK  206  A    between atoms: _493  and  _495
REMARK  207  A    between atoms: _495  and  _496
REMARK  208  A    between atoms: _495  and  _498
REMARK  209  A    between atoms: _498  and  _499
REMARK  210  A    between atoms: _504  and  _506
REMARK  211  A    between atoms: _506  and  _507
REMARK  212  A    between atoms: _506  and  _509
REMARK  213  A    between atoms: _509  and  _510
REMARK  214  A    between atoms: _513  and  _515
REMARK  215  A    between atoms: _515  and  _516
REMARK  216  A    between atoms: _515  and  _518
REMARK  217  A    between atoms: _518  and  _519
REMARK  218  A    between atoms: _519  and  _520
REMARK  219  A    between atoms: _520  and  _521
REMARK  220  A    between atoms: _530  and  _532
REMARK  221  A    between atoms: _532  and  _533
REMARK  222  A    between atoms: _532  and  _535
REMARK  223  A    between atoms: _535  and  _536
REMARK  224  A    between atoms: _539  and  _541
REMARK  225  A    between atoms: _541  and  _542
REMARK  226  A    between atoms: _541  and  _544
REMARK  227  A    between atoms: _544  and  _545
REMARK  228  A    between atoms: _545  and  _546
REMARK  229  A    between atoms: _549  and  _551
REMARK  230  A    between atoms: _551  and  _552
REMARK  231  A    between atoms: _551  and  _554
REMARK  232  A    between atoms: _554  and  _555
REMARK  233  A    between atoms: _561  and  _563
REMARK  234  A    between atoms: _563  and  _564
REMARK  235  A    between atoms: _563  and  _566
REMARK  236  A    between atoms: _566  and  _567
REMARK  237  A    between atoms: _571  and  _572
REMARK  238  A    between atoms: _577  and  _579
REMARK  239  A    between atoms: _579  and  _580
REMARK  240  A    between atoms: _579  and  _582
REMARK  241  A    between atoms: _582  and  _583
REMARK  242  A    between atoms: _583  and  _584
REMARK  243  A    between atoms: _589  and  _591
REMARK  244  A    between atoms: _591  and  _592
REMARK  245  A    between atoms: _591  and  _594
REMARK  246  A    between atoms: _597  and  _599
REMARK  247  A    between atoms: _599  and  _600
REMARK  248  A    between atoms: _599  and  _602
REMARK  249  A    between atoms: _602  and  _603
REMARK  250  A    between atoms: _603  and  _604
REMARK  251  A    between atoms: _606  and  _608
REMARK  252  A    between atoms: _608  and  _609
REMARK  253  A    between atoms: _612  and  _614
REMARK  254  A    between atoms: _614  and  _615
REMARK  255  A    between atoms: _614  and  _617
REMARK  256  A    between atoms: _617  and  _618
REMARK  257  A    between atoms: _621  and  _623
REMARK  258  A    between atoms: _623  and  _624
REMARK  259  A    between atoms: _627  and  _629
REMARK  260  A    between atoms: _629  and  _630
REMARK  261  A    between atoms: _629  and  _632
REMARK  262  A    between atoms: _632  and  _633
REMARK  263  A    between atoms: _636  and  _638
REMARK  264  A    between atoms: _638  and  _639
REMARK  265  A    between atoms: _638  and  _641
REMARK  266  A    between atoms: _641  and  _642
REMARK  267  A    between atoms: _645  and  _647
REMARK  268  A    between atoms: _647  and  _648
REMARK  269  A    between atoms: _647  and  _650
REMARK  270  A    between atoms: _650  and  _651
REMARK  271  A    between atoms: _654  and  _656
REMARK  272  A    between atoms: _656  and  _657
REMARK  273  A    between atoms: _656  and  _659
REMARK  274  A    between atoms: _659  and  _660
REMARK  275  A    between atoms: _660  and  _661
REMARK  276  A    between atoms: _666  and  _668
REMARK  277  A    between atoms: _668  and  _669
REMARK  278  A    between atoms: _672  and  _674
REMARK  279  A    between atoms: _674  and  _675
REMARK  280  A    between atoms: _674  and  _677
REMARK  281  A    between atoms: _680  and  _682
REMARK  282  A    between atoms: _682  and  _683
REMARK  283  A    between atoms: _682  and  _685
REMARK  284  A    between atoms: _685  and  _686
REMARK  285  A    between atoms: _689  and  _691
REMARK  286  A    between atoms: _691  and  _692
REMARK  287  A    between atoms: _691  and  _694
REMARK  288  A    between atoms: _694  and  _695
REMARK  289  A    between atoms: _695  and  _696
REMARK                            x       y       z     vdW  Elec       q    Type
REMARK                         _______ _______ _______ _____ _____    ______ ____
ROOT
ATOM      1  O   HOH     1      16.861  55.354  44.553  0.00  0.00    +0.000 OA
ENDROOT
TORSDOF 0
REMARK  Name = ../refined-set-2016/3vjc/3vjc_pocket.pdb
REMARK  289 active torsions:
REMARK  status: ('A' for Active; 'I' for Inactive)
REMARK    1  A    between atoms: _1  and  _3
REMARK    2  A    between atoms: _3  and  _4
REMARK    3  A    between atoms: _3  and  _6
REMARK    4  A    between atoms: _6  and  _7
REMARK    5  A    between atoms: _10  and  _12
REMARK    6  A    between atoms: _12  and  _13
REMARK    7  A    between atoms: _12  and  _15
REMARK    8  A    between atoms: _15  and  _16
REMARK    9  A    between atoms: _21  and  _23
REMARK   10  A    between atoms: _23  and  _24
REMARK   11  A    between atoms: _23  and  _26
REMARK   12  A    between atoms: _26  and  _27
REMARK   13  A    between atoms: _27  and  _28
REMARK   14  A    between atoms: _33  and  _35
REMARK   15  A    between atoms: _35  and  _36
REMARK   16  A    between atoms: _35  and  _38
REMARK   17  A    between atoms: _38  and  _39
REMARK   18  A    between atoms: _42  and  _44
REMARK   19  A    between atoms: _44  and  _45
REMARK   20  A    between atoms: _44  and  _47
REMARK   21  A    between atoms: _47  and  _48
REMARK   22  A    between atoms: _50  and  _52
REMARK   23  A    between atoms: _52  and  _53
REMARK   24  A    between atoms: _52  and  _55
REMARK   25  A    between atoms: _55  and  _56
REMARK   26  A    between atoms: _56  and  _57
REMARK   27  A    between atoms: _57  and  _58
REMARK   28  A    between atoms: _67  and  _69
REMARK   29  A    between atoms: _69  and  _70
REMARK   30  A    between atoms: _69  and  _72
REMARK   31  A    between atoms: _72  and  _73
REMARK   32  A    between atoms: _75  and  _77
REMARK   33  A    between atoms: _77  and  _78
REMARK   34  A    between atoms: _77  and  _80
REMARK   35  A    between atoms: _80  and  _81
REMARK   36  A    between atoms: _87  and  _89
REMARK   37  A    between atoms: _89  and  _90
REMARK   38  A    between atoms: _93  and  _95
REMARK   39  A    between atoms: _95  and  _96
REMARK   40  A    between atoms: _99  and  _101
REMARK   41  A    between atoms: _101  and  _102
REMARK   42  A    between atoms: _101  and  _104
REMARK   43  A    between atoms: _107  and  _109
REMARK   44  A    between atoms: _109  and  _110
REMARK   45  A    between atoms: _109  and  _112
REMARK   46  A    between atoms: _112  and  _113
REMARK   47  A    between atoms: _116  and  _118
REMARK   48  A    between atoms: _118  and  _119
REMARK   49  A    between atoms: _118  and  _121
REMARK   50  A    between atoms: _121  and  _122
REMARK   51  A    between atoms: _125  and  _127
REMARK   52  A    between atoms: _127  and  _128
REMARK   53  A    between atoms: _131  and  _133
REMARK   54  A    between atoms: _133  and  _134
REMARK   55  A    between atoms: _133  and  _136
REMARK   56  A    between atoms: _139  and  _141
REMARK   57  A    between atoms: _141  and  _142
REMARK   58  A    between atoms: _141  and  _144
REMARK   59  A    between atoms: _146  and  _148
REMARK   60  A    between atoms: _148  and  _149
REMARK   61  A    between atoms: _148  and  _151
REMARK   62  A    between atoms: _151  and  _152
REMARK   63  A    between atoms: _155  and  _157
REMARK   64  A    between atoms: _157  and  _158
REMARK   65  A    between atoms: _157  and  _160
REMARK   66  A    between atoms: _160  and  _161
REMARK   67  A    between atoms: _167  and  _169
REMARK   68  A    between atoms: _169  and  _170
REMARK   69  A    between atoms: _169  and  _172
REMARK   70  A    between atoms: _172  and  _173
REMARK   71  A    between atoms: _178  and  _179
REMARK   72  A    between atoms: _181  and  _183
REMARK   73  A    between atoms: _183  and  _184
REMARK   74  A    between atoms: _183  and  _186
REMARK   75  A    between atoms: _186  and  _187
REMARK   76  A    between atoms: _190  and  _192
REMARK   77  A    between atoms: _192  and  _193
REMARK   78  A    between atoms: _192  and  _195
REMARK   79  A    between atoms: _198  and  _200
REMARK   80  A    between atoms: _200  and  _201
REMARK   81  A    between atoms: _200  and  _203
REMARK   82  A    between atoms: _203  and  _204
REMARK   83  A    between atoms: _207  and  _209
REMARK   84  A    between atoms: _209  and  _210
REMARK   85  A    between atoms: _209  and  _212
REMARK   86  A    between atoms: _212  and  _213
REMARK   87  A    between atoms: _213  and  _214
REMARK   88  A    between atoms: _214  and  _215
REMARK   89  A    between atoms: _224  and  _226
REMARK   90  A    between atoms: _226  and  _227
REMARK   91  A    between atoms: _230  and  _232
REMARK   92  A    between atoms: _232  and  _233
REMARK   93  A    between atoms: _232  and  _235
REMARK   94  A    between atoms: _235  and  _236
REMARK   95  A    between atoms: _239  and  _241
REMARK   96  A    between atoms: _241  and  _242
REMARK   97  A    between atoms: _241  and  _244
REMARK   98  A    between atoms: _244  and  _245
REMARK   99  A    between atoms: _248  and  _250
REMARK  100  A    between atoms: _250  and  _251
REMARK  101  A    between atoms: _250  and  _253
REMARK  102  A    between atoms: _253  and  _254
REMARK  103  A    between atoms: _257  and  _259
REMARK  104  A    between atoms: _259  and  _260
REMARK  105  A    between atoms: _259  and  _262
REMARK  106  A    between atoms: _262  and  _263
REMARK  107  A    between atoms: _263  and  _264
REMARK  108  A    between atoms: _267  and  _269
REMARK  109  A    between atoms: _269  and  _270
REMARK  110  A    between atoms: _269  and  _272
REMARK  111  A    between atoms: _272  and  _273
REMARK  112  A    between atoms: _276  and  _278
REMARK  113  A    between atoms: _278  and  _279
REMARK  114  A    between atoms: _278  and  _281
REMARK  115  A    between atoms: _281  and  _282
REMARK  116  A    between atoms: _282  and  _283
REMARK  117  A    between atoms: _283  and  _284
REMARK  118  A    between atoms: _284  and  _285
REMARK  119  A    between atoms: _289  and  _291
REMARK  120  A    between atoms: _291  and  _292
REMARK  121  A    between atoms: _291  and  _294
REMARK  122  A    between atoms: _294  and  _295
REMARK  123  A    between atoms: _298  and  _300
REMARK  124  A    between atoms: _300  and  _301
REMARK  125  A    between atoms: _300  and  _303
REMARK  126  A    between atoms: _303  and  _304
REMARK  127  A    between atoms: _307  and  _309
REMARK  128  A    between atoms: _309  and  _310
REMARK  129  A    between atoms: _309  and  _312
REMARK  130  A    between atoms: _312  and  _313
REMARK  131  A    between atoms: _313  and  _314
REMARK  132  A    between atoms: _316  and  _318
REMARK  133  A    between atoms: _318  and  _319
REMARK  134  A    between atoms: _318  and  _321
REMARK  135  A    between atoms: _321  and  _322
REMARK  136  A    between atoms: _322  and  _323
REMARK  137  A    between atoms: _325  and  _327
REMARK  138  A    between atoms: _327  and  _328
REMARK  139  A    between atoms: _327  and  _330
REMARK  140  A    between atoms: _330  and  _331
REMARK  141  A    between atoms: _336  and  _337
REMARK  142  A    between atoms: _339  and  _341
REMARK  143  A    between atoms: _341  and  _342
REMARK  144  A    between atoms: _341  and  _344
REMARK  145  A    between atoms: _344  and  _345
REMARK  146  A    between atoms: _350  and  _351
REMARK  147  A    between atoms: _353  and  _355
REMARK  148  A    between atoms: _355  and  _356
REMARK  149  A    between atoms: _355  and  _358
REMARK  150  A    between atoms: _361  and  _363
REMARK  151  A    between atoms: _363  and  _364
REMARK  152  A    between atoms: _367  and  _369
REMARK  153  A    between atoms: _369  and  _370
REMARK  154  A    between atoms: _372  and  _374
REMARK  155  A    between atoms: _374  and  _375
REMARK  156  A    between atoms: _374  and  _377
REMARK  157  A    between atoms: _377  and  _378
REMARK  158  A    between atoms: _381  and  _383
REMARK  159  A    between atoms: _383  and  _384
REMARK  160  A    between atoms: _383  and  _386
REMARK  161  A    between atoms: _389  and  _391
REMARK  162  A    between atoms: _391  and  _392
REMARK  163  A    between atoms: _394  and  _396
REMARK  164  A    between atoms: _396  and  _397
REMARK  165  A    between atoms: _399  and  _401
REMARK  166  A    between atoms: _401  and  _402
REMARK  167  A    between atoms: _401  and  _404
REMARK  168  A    between atoms: _404  and  _405
REMARK  169  A    between atoms: _408  and  _410
REMARK  170  A    between atoms: _410  and  _411
REMARK  171  A    between atoms: _410  and  _413
REMARK  172  A    between atoms: _413  and  _414
REMARK  173  A    between atoms: _417  and  _419
REMARK  174  A    between atoms: _419  and  _420
REMARK  175  A    between atoms: _419  and  _422
REMARK  176  A    between atoms: _422  and  _423
REMARK  177  A    between atoms: _429  and  _431
REMARK  178  A    between atoms: _431  and  _432
REMARK  179  A    between atoms: _431  and  _434
REMARK  180  A    between atoms: _434  and  _435
REMARK  181  A    between atoms: _435  and  _436
REMARK  182  A    between atoms: _438  and  _440
REMARK  183  A    between atoms: _440  and  _441
REMARK  184  A    between atoms: _440  and  _443
REMARK  185  A    between atoms: _443  and  _444
REMARK  186  A    between atoms: _450  and  _452
REMARK  187  A    between atoms: _452  and  _453
REMARK  188  A    between atoms: _452  and  _455
REMARK  189  A    between atoms: _455  and  _456
REMARK  190  A    between atoms: _459  and  _461
REMARK  191  A    between atoms: _461  and  _462
REMARK  192  A    between atoms: _461  and  _464
REMARK  193  A    between atoms: _464  and  _465
REMARK  194  A    between atoms: _465  and  _466
REMARK  195  A    between atoms: _471  and  _473
REMARK  196  A    between atoms: _473  and  _474
REMARK  197  A    between atoms: _473  and  _476
REMARK  198  A    between atoms: _476  and  _477
REMARK  199  A    between atoms: _477  and  _478
REMARK  200  A    between atoms: _478  and  _479
REMARK  201  A    between atoms: _479  and  _480
REMARK  202  A    between atoms: _484  and  _486
REMARK  203  A    between atoms: _486  and  _487
REMARK  204  A    between atoms: _486  and  _489
REMARK  205  A    between atoms: _489  and  _490
REMARK  206  A    between atoms: _493  and  _495
REMARK  207  A    between atoms: _495  and  _496
REMARK  208  A    between atoms: _495  and  _498
REMARK  209  A    between atoms: _498  and  _499
REMARK  210  A    between atoms: _504  and  _506
REMARK  211  A    between atoms: _506  and  _507
REMARK  212  A    between atoms: _506  and  _509
REMARK  213  A    between atoms: _509  and  _510
REMARK  214  A    between atoms: _513  and  _515
REMARK  215  A    between atoms: _515  and  _516
REMARK  216  A    between atoms: _515  and  _518
REMARK  217  A    between atoms: _518  and  _519
REMARK  218  A    between atoms: _519  and  _520
REMARK  219  A    between atoms: _520  and  _521
REMARK  220  A    between atoms: _530  and  _532
REMARK  221  A    between atoms: _532  and  _533
REMARK  222  A    between atoms: _532  and  _535
REMARK  223  A    between atoms: _535  and  _536
REMARK  224  A    between atoms: _539  and  _541
REMARK  225  A    between atoms: _541  and  _542
REMARK  226  A    between atoms: _541  and  _544
REMARK  227  A    between atoms: _544  and  _545
REMARK  228  A    between atoms: _545  and  _546
REMARK  229  A    between atoms: _549  and  _551
REMARK  230  A    between atoms: _551  and  _552
REMARK  231  A    between atoms: _551  and  _554
REMARK  232  A    between atoms: _554  and  _555
REMARK  233  A    between atoms: _561  and  _563
REMARK  234  A    between atoms: _563  and  _564
REMARK  235  A    between atoms: _563  and  _566
REMARK  236  A    between atoms: _566  and  _567
REMARK  237  A    between atoms: _571  and  _572
REMARK  238  A    between atoms: _577  and  _579
REMARK  239  A    between atoms: _579  and  _580
REMARK  240  A    between atoms: _579  and  _582
REMARK  241  A    between atoms: _582  and  _583
REMARK  242  A    between atoms: _583  and  _584
REMARK  243  A    between atoms: _589  and  _591
REMARK  244  A    between atoms: _591  and  _592
REMARK  245  A    between atoms: _591  and  _594
REMARK  246  A    between atoms: _597  and  _599
REMARK  247  A    between atoms: _599  and  _600
REMARK  248  A    between atoms: _599  and  _602
REMARK  249  A    between atoms: _602  and  _603
REMARK  250  A    between atoms: _603  and  _604
REMARK  251  A    between atoms: _606  and  _608
REMARK  252  A    between atoms: _608  and  _609
REMARK  253  A    between atoms: _612  and  _614
REMARK  254  A    between atoms: _614  and  _615
REMARK  255  A    between atoms: _614  and  _617
REMARK  256  A    between atoms: _617  and  _618
REMARK  257  A    between atoms: _621  and  _623
REMARK  258  A    between atoms: _623  and  _624
REMARK  259  A    between atoms: _627  and  _629
REMARK  260  A    between atoms: _629  and  _630
REMARK  261  A    between atoms: _629  and  _632
REMARK  262  A    between atoms: _632  and  _633
REMARK  263  A    between atoms: _636  and  _638
REMARK  264  A    between atoms: _638  and  _639
REMARK  265  A    between atoms: _638  and  _641
REMARK  266  A    between atoms: _641  and  _642
REMARK  267  A    between atoms: _645  and  _647
REMARK  268  A    between atoms: _647  and  _648
REMARK  269  A    between atoms: _647  and  _650
REMARK  270  A    between atoms: _650  and  _651
REMARK  271  A    between atoms: _654  and  _656
REMARK  272  A    between atoms: _656  and  _657
REMARK  273  A    between atoms: _656  and  _659
REMARK  274  A    between atoms: _659  and  _660
REMARK  275  A    between atoms: _660  and  _661
REMARK  276  A    between atoms: _666  and  _668
REMARK  277  A    between atoms: _668  and  _669
REMARK  278  A    between atoms: _672  and  _674
REMARK  279  A    between atoms: _674  and  _675
REMARK  280  A    between atoms: _674  and  _677
REMARK  281  A    between atoms: _680  and  _682
REMARK  282  A    between atoms: _682  and  _683
REMARK  283  A    between atoms: _682  and  _685
REMARK  284  A    between atoms: _685  and  _686
REMARK  285  A    between atoms: _689  and  _691
REMARK  286  A    between atoms: _691  and  _692
REMARK  287  A    between atoms: _691  and  _694
REMARK  288  A    between atoms: _694  and  _695
REMARK  289  A    between atoms: _695  and  _696
REMARK                            x       y       z     vdW  Elec       q    Type
REMARK                         _______ _______ _______ _____ _____    ______ ____
ROOT
ATOM      1  O   HOH     1      14.746  53.597  44.447  0.00  0.00    +0.000 OA
ENDROOT
TORSDOF 0
REMARK  Name = ../refined-set-2016/3vjc/3vjc_pocket.pdb
REMARK  289 active torsions:
REMARK  status: ('A' for Active; 'I' for Inactive)
REMARK    1  A    between atoms: _1  and  _3
REMARK    2  A    between atoms: _3  and  _4
REMARK    3  A    between atoms: _3  and  _6
REMARK    4  A    between atoms: _6  and  _7
REMARK    5  A    between atoms: _10  and  _12
REMARK    6  A    between atoms: _12  and  _13
REMARK    7  A    between atoms: _12  and  _15
REMARK    8  A    between atoms: _15  and  _16
REMARK    9  A    between atoms: _21  and  _23
REMARK   10  A    between atoms: _23  and  _24
REMARK   11  A    between atoms: _23  and  _26
REMARK   12  A    between atoms: _26  and  _27
REMARK   13  A    between atoms: _27  and  _28
REMARK   14  A    between atoms: _33  and  _35
REMARK   15  A    between atoms: _35  and  _36
REMARK   16  A    between atoms: _35  and  _38
REMARK   17  A    between atoms: _38  and  _39
REMARK   18  A    between atoms: _42  and  _44
REMARK   19  A    between atoms: _44  and  _45
REMARK   20  A    between atoms: _44  and  _47
REMARK   21  A    between atoms: _47  and  _48
REMARK   22  A    between atoms: _50  and  _52
REMARK   23  A    between atoms: _52  and  _53
REMARK   24  A    between atoms: _52  and  _55
REMARK   25  A    between atoms: _55  and  _56
REMARK   26  A    between atoms: _56  and  _57
REMARK   27  A    between atoms: _57  and  _58
REMARK   28  A    between atoms: _67  and  _69
REMARK   29  A    between atoms: _69  and  _70
REMARK   30  A    between atoms: _69  and  _72
REMARK   31  A    between atoms: _72  and  _73
REMARK   32  A    between atoms: _75  and  _77
REMARK   33  A    between atoms: _77  and  _78
REMARK   34  A    between atoms: _77  and  _80
REMARK   35  A    between atoms: _80  and  _81
REMARK   36  A    between atoms: _87  and  _89
REMARK   37  A    between atoms: _89  and  _90
REMARK   38  A    between atoms: _93  and  _95
REMARK   39  A    between atoms: _95  and  _96
REMARK   40  A    between atoms: _99  and  _101
REMARK   41  A    between atoms: _101  and  _102
REMARK   42  A    between atoms: _101  and  _104
REMARK   43  A    between atoms: _107  and  _109
REMARK   44  A    between atoms: _109  and  _110
REMARK   45  A    between atoms: _109  and  _112
REMARK   46  A    between atoms: _112  and  _113
REMARK   47  A    between atoms: _116  and  _118
REMARK   48  A    between atoms: _118  and  _119
REMARK   49  A    between atoms: _118  and  _121
REMARK   50  A    between atoms: _121  and  _122
REMARK   51  A    between atoms: _125  and  _127
REMARK   52  A    between atoms: _127  and  _128
REMARK   53  A    between atoms: _131  and  _133
REMARK   54  A    between atoms: _133  and  _134
REMARK   55  A    between atoms: _133  and  _136
REMARK   56  A    between atoms: _139  and  _141
REMARK   57  A    between atoms: _141  and  _142
REMARK   58  A    between atoms: _141  and  _144
REMARK   59  A    between atoms: _146  and  _148
REMARK   60  A    between atoms: _148  and  _149
REMARK   61  A    between atoms: _148  and  _151
REMARK   62  A    between atoms: _151  and  _152
REMARK   63  A    between atoms: _155  and  _157
REMARK   64  A    between atoms: _157  and  _158
REMARK   65  A    between atoms: _157  and  _160
REMARK   66  A    between atoms: _160  and  _161
REMARK   67  A    between atoms: _167  and  _169
REMARK   68  A    between atoms: _169  and  _170
REMARK   69  A    between atoms: _169  and  _172
REMARK   70  A    between atoms: _172  and  _173
REMARK   71  A    between atoms: _178  and  _179
REMARK   72  A    between atoms: _181  and  _183
REMARK   73  A    between atoms: _183  and  _184
REMARK   74  A    between atoms: _183  and  _186
REMARK   75  A    between atoms: _186  and  _187
REMARK   76  A    between atoms: _190  and  _192
REMARK   77  A    between atoms: _192  and  _193
REMARK   78  A    between atoms: _192  and  _195
REMARK   79  A    between atoms: _198  and  _200
REMARK   80  A    between atoms: _200  and  _201
REMARK   81  A    between atoms: _200  and  _203
REMARK   82  A    between atoms: _203  and  _204
REMARK   83  A    between atoms: _207  and  _209
REMARK   84  A    between atoms: _209  and  _210
REMARK   85  A    between atoms: _209  and  _212
REMARK   86  A    between atoms: _212  and  _213
REMARK   87  A    between atoms: _213  and  _214
REMARK   88  A    between atoms: _214  and  _215
REMARK   89  A    between atoms: _224  and  _226
REMARK   90  A    between atoms: _226  and  _227
REMARK   91  A    between atoms: _230  and  _232
REMARK   92  A    between atoms: _232  and  _233
REMARK   93  A    between atoms: _232  and  _235
REMARK   94  A    between atoms: _235  and  _236
REMARK   95  A    between atoms: _239  and  _241
REMARK   96  A    between atoms: _241  and  _242
REMARK   97  A    between atoms: _241  and  _244
REMARK   98  A    between atoms: _244  and  _245
REMARK   99  A    between atoms: _248  and  _250
REMARK  100  A    between atoms: _250  and  _251
REMARK  101  A    between atoms: _250  and  _253
REMARK  102  A    between atoms: _253  and  _254
REMARK  103  A    between atoms: _257  and  _259
REMARK  104  A    between atoms: _259  and  _260
REMARK  105  A    between atoms: _259  and  _262
REMARK  106  A    between atoms: _262  and  _263
REMARK  107  A    between atoms: _263  and  _264
REMARK  108  A    between atoms: _267  and  _269
REMARK  109  A    between atoms: _269  and  _270
REMARK  110  A    between atoms: _269  and  _272
REMARK  111  A    between atoms: _272  and  _273
REMARK  112  A    between atoms: _276  and  _278
REMARK  113  A    between atoms: _278  and  _279
REMARK  114  A    between atoms: _278  and  _281
REMARK  115  A    between atoms: _281  and  _282
REMARK  116  A    between atoms: _282  and  _283
REMARK  117  A    between atoms: _283  and  _284
REMARK  118  A    between atoms: _284  and  _285
REMARK  119  A    between atoms: _289  and  _291
REMARK  120  A    between atoms: _291  and  _292
REMARK  121  A    between atoms: _291  and  _294
REMARK  122  A    between atoms: _294  and  _295
REMARK  123  A    between atoms: _298  and  _300
REMARK  124  A    between atoms: _300  and  _301
REMARK  125  A    between atoms: _300  and  _303
REMARK  126  A    between atoms: _303  and  _304
REMARK  127  A    between atoms: _307  and  _309
REMARK  128  A    between atoms: _309  and  _310
REMARK  129  A    between atoms: _309  and  _312
REMARK  130  A    between atoms: _312  and  _313
REMARK  131  A    between atoms: _313  and  _314
REMARK  132  A    between atoms: _316  and  _318
REMARK  133  A    between atoms: _318  and  _319
REMARK  134  A    between atoms: _318  and  _321
REMARK  135  A    between atoms: _321  and  _322
REMARK  136  A    between atoms: _322  and  _323
REMARK  137  A    between atoms: _325  and  _327
REMARK  138  A    between atoms: _327  and  _328
REMARK  139  A    between atoms: _327  and  _330
REMARK  140  A    between atoms: _330  and  _331
REMARK  141  A    between atoms: _336  and  _337
REMARK  142  A    between atoms: _339  and  _341
REMARK  143  A    between atoms: _341  and  _342
REMARK  144  A    between atoms: _341  and  _344
REMARK  145  A    between atoms: _344  and  _345
REMARK  146  A    between atoms: _350  and  _351
REMARK  147  A    between atoms: _353  and  _355
REMARK  148  A    between atoms: _355  and  _356
REMARK  149  A    between atoms: _355  and  _358
REMARK  150  A    between atoms: _361  and  _363
REMARK  151  A    between atoms: _363  and  _364
REMARK  152  A    between atoms: _367  and  _369
REMARK  153  A    between atoms: _369  and  _370
REMARK  154  A    between atoms: _372  and  _374
REMARK  155  A    between atoms: _374  and  _375
REMARK  156  A    between atoms: _374  and  _377
REMARK  157  A    between atoms: _377  and  _378
REMARK  158  A    between atoms: _381  and  _383
REMARK  159  A    between atoms: _383  and  _384
REMARK  160  A    between atoms: _383  and  _386
REMARK  161  A    between atoms: _389  and  _391
REMARK  162  A    between atoms: _391  and  _392
REMARK  163  A    between atoms: _394  and  _396
REMARK  164  A    between atoms: _396  and  _397
REMARK  165  A    between atoms: _399  and  _401
REMARK  166  A    between atoms: _401  and  _402
REMARK  167  A    between atoms: _401  and  _404
REMARK  168  A    between atoms: _404  and  _405
REMARK  169  A    between atoms: _408  and  _410
REMARK  170  A    between atoms: _410  and  _411
REMARK  171  A    between atoms: _410  and  _413
REMARK  172  A    between atoms: _413  and  _414
REMARK  173  A    between atoms: _417  and  _419
REMARK  174  A    between atoms: _419  and  _420
REMARK  175  A    between atoms: _419  and  _422
REMARK  176  A    between atoms: _422  and  _423
REMARK  177  A    between atoms: _429  and  _431
REMARK  178  A    between atoms: _431  and  _432
REMARK  179  A    between atoms: _431  and  _434
REMARK  180  A    between atoms: _434  and  _435
REMARK  181  A    between atoms: _435  and  _436
REMARK  182  A    between atoms: _438  and  _440
REMARK  183  A    between atoms: _440  and  _441
REMARK  184  A    between atoms: _440  and  _443
REMARK  185  A    between atoms: _443  and  _444
REMARK  186  A    between atoms: _450  and  _452
REMARK  187  A    between atoms: _452  and  _453
REMARK  188  A    between atoms: _452  and  _455
REMARK  189  A    between atoms: _455  and  _456
REMARK  190  A    between atoms: _459  and  _461
REMARK  191  A    between atoms: _461  and  _462
REMARK  192  A    between atoms: _461  and  _464
REMARK  193  A    between atoms: _464  and  _465
REMARK  194  A    between atoms: _465  and  _466
REMARK  195  A    between atoms: _471  and  _473
REMARK  196  A    between atoms: _473  and  _474
REMARK  197  A    between atoms: _473  and  _476
REMARK  198  A    between atoms: _476  and  _477
REMARK  199  A    between atoms: _477  and  _478
REMARK  200  A    between atoms: _478  and  _479
REMARK  201  A    between atoms: _479  and  _480
REMARK  202  A    between atoms: _484  and  _486
REMARK  203  A    between atoms: _486  and  _487
REMARK  204  A    between atoms: _486  and  _489
REMARK  205  A    between atoms: _489  and  _490
REMARK  206  A    between atoms: _493  and  _495
REMARK  207  A    between atoms: _495  and  _496
REMARK  208  A    between atoms: _495  and  _498
REMARK  209  A    between atoms: _498  and  _499
REMARK  210  A    between atoms: _504  and  _506
REMARK  211  A    between atoms: _506  and  _507
REMARK  212  A    between atoms: _506  and  _509
REMARK  213  A    between atoms: _509  and  _510
REMARK  214  A    between atoms: _513  and  _515
REMARK  215  A    between atoms: _515  and  _516
REMARK  216  A    between atoms: _515  and  _518
REMARK  217  A    between atoms: _518  and  _519
REMARK  218  A    between atoms: _519  and  _520
REMARK  219  A    between atoms: _520  and  _521
REMARK  220  A    between atoms: _530  and  _532
REMARK  221  A    between atoms: _532  and  _533
REMARK  222  A    between atoms: _532  and  _535
REMARK  223  A    between atoms: _535  and  _536
REMARK  224  A    between atoms: _539  and  _541
REMARK  225  A    between atoms: _541  and  _542
REMARK  226  A    between atoms: _541  and  _544
REMARK  227  A    between atoms: _544  and  _545
REMARK  228  A    between atoms: _545  and  _546
REMARK  229  A    between atoms: _549  and  _551
REMARK  230  A    between atoms: _551  and  _552
REMARK  231  A    between atoms: _551  and  _554
REMARK  232  A    between atoms: _554  and  _555
REMARK  233  A    between atoms: _561  and  _563
REMARK  234  A    between atoms: _563  and  _564
REMARK  235  A    between atoms: _563  and  _566
REMARK  236  A    between atoms: _566  and  _567
REMARK  237  A    between atoms: _571  and  _572
REMARK  238  A    between atoms: _577  and  _579
REMARK  239  A    between atoms: _579  and  _580
REMARK  240  A    between atoms: _579  and  _582
REMARK  241  A    between atoms: _582  and  _583
REMARK  242  A    between atoms: _583  and  _584
REMARK  243  A    between atoms: _589  and  _591
REMARK  244  A    between atoms: _591  and  _592
REMARK  245  A    between atoms: _591  and  _594
REMARK  246  A    between atoms: _597  and  _599
REMARK  247  A    between atoms: _599  and  _600
REMARK  248  A    between atoms: _599  and  _602
REMARK  249  A    between atoms: _602  and  _603
REMARK  250  A    between atoms: _603  and  _604
REMARK  251  A    between atoms: _606  and  _608
REMARK  252  A    between atoms: _608  and  _609
REMARK  253  A    between atoms: _612  and  _614
REMARK  254  A    between atoms: _614  and  _615
REMARK  255  A    between atoms: _614  and  _617
REMARK  256  A    between atoms: _617  and  _618
REMARK  257  A    between atoms: _621  and  _623
REMARK  258  A    between atoms: _623  and  _624
REMARK  259  A    between atoms: _627  and  _629
REMARK  260  A    between atoms: _629  and  _630
REMARK  261  A    between atoms: _629  and  _632
REMARK  262  A    between atoms: _632  and  _633
REMARK  263  A    between atoms: _636  and  _638
REMARK  264  A    between atoms: _638  and  _639
REMARK  265  A    between atoms: _638  and  _641
REMARK  266  A    between atoms: _641  and  _642
REMARK  267  A    between atoms: _645  and  _647
REMARK  268  A    between atoms: _647  and  _648
REMARK  269  A    between atoms: _647  and  _650
REMARK  270  A    between atoms: _650  and  _651
REMARK  271  A    between atoms: _654  and  _656
REMARK  272  A    between atoms: _656  and  _657
REMARK  273  A    between atoms: _656  and  _659
REMARK  274  A    between atoms: _659  and  _660
REMARK  275  A    between atoms: _660  and  _661
REMARK  276  A    between atoms: _666  and  _668
REMARK  277  A    between atoms: _668  and  _669
REMARK  278  A    between atoms: _672  and  _674
REMARK  279  A    between atoms: _674  and  _675
REMARK  280  A    between atoms: _674  and  _677
REMARK  281  A    between atoms: _680  and  _682
REMARK  282  A    between atoms: _682  and  _683
REMARK  283  A    between atoms: _682  and  _685
REMARK  284  A    between atoms: _685  and  _686
REMARK  285  A    between atoms: _689  and  _691
REMARK  286  A    between atoms: _691  and  _692
REMARK  287  A    between atoms: _691  and  _694
REMARK  288  A    between atoms: _694  and  _695
REMARK  289  A    between atoms: _695  and  _696
REMARK                            x       y       z     vdW  Elec       q    Type
REMARK                         _______ _______ _______ _____ _____    ______ ____
ROOT
ATOM      1  O   HOH     1      17.037  68.104  55.194  0.00  0.00    +0.000 OA
ENDROOT
TORSDOF 0
REMARK  Name = ../refined-set-2016/3vjc/3vjc_pocket.pdb
REMARK  289 active torsions:
REMARK  status: ('A' for Active; 'I' for Inactive)
REMARK    1  A    between atoms: _1  and  _3
REMARK    2  A    between atoms: _3  and  _4
REMARK    3  A    between atoms: _3  and  _6
REMARK    4  A    between atoms: _6  and  _7
REMARK    5  A    between atoms: _10  and  _12
REMARK    6  A    between atoms: _12  and  _13
REMARK    7  A    between atoms: _12  and  _15
REMARK    8  A    between atoms: _15  and  _16
REMARK    9  A    between atoms: _21  and  _23
REMARK   10  A    between atoms: _23  and  _24
REMARK   11  A    between atoms: _23  and  _26
REMARK   12  A    between atoms: _26  and  _27
REMARK   13  A    between atoms: _27  and  _28
REMARK   14  A    between atoms: _33  and  _35
REMARK   15  A    between atoms: _35  and  _36
REMARK   16  A    between atoms: _35  and  _38
REMARK   17  A    between atoms: _38  and  _39
REMARK   18  A    between atoms: _42  and  _44
REMARK   19  A    between atoms: _44  and  _45
REMARK   20  A    between atoms: _44  and  _47
REMARK   21  A    between atoms: _47  and  _48
REMARK   22  A    between atoms: _50  and  _52
REMARK   23  A    between atoms: _52  and  _53
REMARK   24  A    between atoms: _52  and  _55
REMARK   25  A    between atoms: _55  and  _56
REMARK   26  A    between atoms: _56  and  _57
REMARK   27  A    between atoms: _57  and  _58
REMARK   28  A    between atoms: _67  and  _69
REMARK   29  A    between atoms: _69  and  _70
REMARK   30  A    between atoms: _69  and  _72
REMARK   31  A    between atoms: _72  and  _73
REMARK   32  A    between atoms: _75  and  _77
REMARK   33  A    between atoms: _77  and  _78
REMARK   34  A    between atoms: _77  and  _80
REMARK   35  A    between atoms: _80  and  _81
REMARK   36  A    between atoms: _87  and  _89
REMARK   37  A    between atoms: _89  and  _90
REMARK   38  A    between atoms: _93  and  _95
REMARK   39  A    between atoms: _95  and  _96
REMARK   40  A    between atoms: _99  and  _101
REMARK   41  A    between atoms: _101  and  _102
REMARK   42  A    between atoms: _101  and  _104
REMARK   43  A    between atoms: _107  and  _109
REMARK   44  A    between atoms: _109  and  _110
REMARK   45  A    between atoms: _109  and  _112
REMARK   46  A    between atoms: _112  and  _113
REMARK   47  A    between atoms: _116  and  _118
REMARK   48  A    between atoms: _118  and  _119
REMARK   49  A    between atoms: _118  and  _121
REMARK   50  A    between atoms: _121  and  _122
REMARK   51  A    between atoms: _125  and  _127
REMARK   52  A    between atoms: _127  and  _128
REMARK   53  A    between atoms: _131  and  _133
REMARK   54  A    between atoms: _133  and  _134
REMARK   55  A    between atoms: _133  and  _136
REMARK   56  A    between atoms: _139  and  _141
REMARK   57  A    between atoms: _141  and  _142
REMARK   58  A    between atoms: _141  and  _144
REMARK   59  A    between atoms: _146  and  _148
REMARK   60  A    between atoms: _148  and  _149
REMARK   61  A    between atoms: _148  and  _151
REMARK   62  A    between atoms: _151  and  _152
REMARK   63  A    between atoms: _155  and  _157
REMARK   64  A    between atoms: _157  and  _158
REMARK   65  A    between atoms: _157  and  _160
REMARK   66  A    between atoms: _160  and  _161
REMARK   67  A    between atoms: _167  and  _169
REMARK   68  A    between atoms: _169  and  _170
REMARK   69  A    between atoms: _169  and  _172
REMARK   70  A    between atoms: _172  and  _173
REMARK   71  A    between atoms: _178  and  _179
REMARK   72  A    between atoms: _181  and  _183
REMARK   73  A    between atoms: _183  and  _184
REMARK   74  A    between atoms: _183  and  _186
REMARK   75  A    between atoms: _186  and  _187
REMARK   76  A    between atoms: _190  and  _192
REMARK   77  A    between atoms: _192  and  _193
REMARK   78  A    between atoms: _192  and  _195
REMARK   79  A    between atoms: _198  and  _200
REMARK   80  A    between atoms: _200  and  _201
REMARK   81  A    between atoms: _200  and  _203
REMARK   82  A    between atoms: _203  and  _204
REMARK   83  A    between atoms: _207  and  _209
REMARK   84  A    between atoms: _209  and  _210
REMARK   85  A    between atoms: _209  and  _212
REMARK   86  A    between atoms: _212  and  _213
REMARK   87  A    between atoms: _213  and  _214
REMARK   88  A    between atoms: _214  and  _215
REMARK   89  A    between atoms: _224  and  _226
REMARK   90  A    between atoms: _226  and  _227
REMARK   91  A    between atoms: _230  and  _232
REMARK   92  A    between atoms: _232  and  _233
REMARK   93  A    between atoms: _232  and  _235
REMARK   94  A    between atoms: _235  and  _236
REMARK   95  A    between atoms: _239  and  _241
REMARK   96  A    between atoms: _241  and  _242
REMARK   97  A    between atoms: _241  and  _244
REMARK   98  A    between atoms: _244  and  _245
REMARK   99  A    between atoms: _248  and  _250
REMARK  100  A    between atoms: _250  and  _251
REMARK  101  A    between atoms: _250  and  _253
REMARK  102  A    between atoms: _253  and  _254
REMARK  103  A    between atoms: _257  and  _259
REMARK  104  A    between atoms: _259  and  _260
REMARK  105  A    between atoms: _259  and  _262
REMARK  106  A    between atoms: _262  and  _263
REMARK  107  A    between atoms: _263  and  _264
REMARK  108  A    between atoms: _267  and  _269
REMARK  109  A    between atoms: _269  and  _270
REMARK  110  A    between atoms: _269  and  _272
REMARK  111  A    between atoms: _272  and  _273
REMARK  112  A    between atoms: _276  and  _278
REMARK  113  A    between atoms: _278  and  _279
REMARK  114  A    between atoms: _278  and  _281
REMARK  115  A    between atoms: _281  and  _282
REMARK  116  A    between atoms: _282  and  _283
REMARK  117  A    between atoms: _283  and  _284
REMARK  118  A    between atoms: _284  and  _285
REMARK  119  A    between atoms: _289  and  _291
REMARK  120  A    between atoms: _291  and  _292
REMARK  121  A    between atoms: _291  and  _294
REMARK  122  A    between atoms: _294  and  _295
REMARK  123  A    between atoms: _298  and  _300
REMARK  124  A    between atoms: _300  and  _301
REMARK  125  A    between atoms: _300  and  _303
REMARK  126  A    between atoms: _303  and  _304
REMARK  127  A    between atoms: _307  and  _309
REMARK  128  A    between atoms: _309  and  _310
REMARK  129  A    between atoms: _309  and  _312
REMARK  130  A    between atoms: _312  and  _313
REMARK  131  A    between atoms: _313  and  _314
REMARK  132  A    between atoms: _316  and  _318
REMARK  133  A    between atoms: _318  and  _319
REMARK  134  A    between atoms: _318  and  _321
REMARK  135  A    between atoms: _321  and  _322
REMARK  136  A    between atoms: _322  and  _323
REMARK  137  A    between atoms: _325  and  _327
REMARK  138  A    between atoms: _327  and  _328
REMARK  139  A    between atoms: _327  and  _330
REMARK  140  A    between atoms: _330  and  _331
REMARK  141  A    between atoms: _336  and  _337
REMARK  142  A    between atoms: _339  and  _341
REMARK  143  A    between atoms: _341  and  _342
REMARK  144  A    between atoms: _341  and  _344
REMARK  145  A    between atoms: _344  and  _345
REMARK  146  A    between atoms: _350  and  _351
REMARK  147  A    between atoms: _353  and  _355
REMARK  148  A    between atoms: _355  and  _356
REMARK  149  A    between atoms: _355  and  _358
REMARK  150  A    between atoms: _361  and  _363
REMARK  151  A    between atoms: _363  and  _364
REMARK  152  A    between atoms: _367  and  _369
REMARK  153  A    between atoms: _369  and  _370
REMARK  154  A    between atoms: _372  and  _374
REMARK  155  A    between atoms: _374  and  _375
REMARK  156  A    between atoms: _374  and  _377
REMARK  157  A    between atoms: _377  and  _378
REMARK  158  A    between atoms: _381  and  _383
REMARK  159  A    between atoms: _383  and  _384
REMARK  160  A    between atoms: _383  and  _386
REMARK  161  A    between atoms: _389  and  _391
REMARK  162  A    between atoms: _391  and  _392
REMARK  163  A    between atoms: _394  and  _396
REMARK  164  A    between atoms: _396  and  _397
REMARK  165  A    between atoms: _399  and  _401
REMARK  166  A    between atoms: _401  and  _402
REMARK  167  A    between atoms: _401  and  _404
REMARK  168  A    between atoms: _404  and  _405
REMARK  169  A    between atoms: _408  and  _410
REMARK  170  A    between atoms: _410  and  _411
REMARK  171  A    between atoms: _410  and  _413
REMARK  172  A    between atoms: _413  and  _414
REMARK  173  A    between atoms: _417  and  _419
REMARK  174  A    between atoms: _419  and  _420
REMARK  175  A    between atoms: _419  and  _422
REMARK  176  A    between atoms: _422  and  _423
REMARK  177  A    between atoms: _429  and  _431
REMARK  178  A    between atoms: _431  and  _432
REMARK  179  A    between atoms: _431  and  _434
REMARK  180  A    between atoms: _434  and  _435
REMARK  181  A    between atoms: _435  and  _436
REMARK  182  A    between atoms: _438  and  _440
REMARK  183  A    between atoms: _440  and  _441
REMARK  184  A    between atoms: _440  and  _443
REMARK  185  A    between atoms: _443  and  _444
REMARK  186  A    between atoms: _450  and  _452
REMARK  187  A    between atoms: _452  and  _453
REMARK  188  A    between atoms: _452  and  _455
REMARK  189  A    between atoms: _455  and  _456
REMARK  190  A    between atoms: _459  and  _461
REMARK  191  A    between atoms: _461  and  _462
REMARK  192  A    between atoms: _461  and  _464
REMARK  193  A    between atoms: _464  and  _465
REMARK  194  A    between atoms: _465  and  _466
REMARK  195  A    between atoms: _471  and  _473
REMARK  196  A    between atoms: _473  and  _474
REMARK  197  A    between atoms: _473  and  _476
REMARK  198  A    between atoms: _476  and  _477
REMARK  199  A    between atoms: _477  and  _478
REMARK  200  A    between atoms: _478  and  _479
REMARK  201  A    between atoms: _479  and  _480
REMARK  202  A    between atoms: _484  and  _486
REMARK  203  A    between atoms: _486  and  _487
REMARK  204  A    between atoms: _486  and  _489
REMARK  205  A    between atoms: _489  and  _490
REMARK  206  A    between atoms: _493  and  _495
REMARK  207  A    between atoms: _495  and  _496
REMARK  208  A    between atoms: _495  and  _498
REMARK  209  A    between atoms: _498  and  _499
REMARK  210  A    between atoms: _504  and  _506
REMARK  211  A    between atoms: _506  and  _507
REMARK  212  A    between atoms: _506  and  _509
REMARK  213  A    between atoms: _509  and  _510
REMARK  214  A    between atoms: _513  and  _515
REMARK  215  A    between atoms: _515  and  _516
REMARK  216  A    between atoms: _515  and  _518
REMARK  217  A    between atoms: _518  and  _519
REMARK  218  A    between atoms: _519  and  _520
REMARK  219  A    between atoms: _520  and  _521
REMARK  220  A    between atoms: _530  and  _532
REMARK  221  A    between atoms: _532  and  _533
REMARK  222  A    between atoms: _532  and  _535
REMARK  223  A    between atoms: _535  and  _536
REMARK  224  A    between atoms: _539  and  _541
REMARK  225  A    between atoms: _541  and  _542
REMARK  226  A    between atoms: _541  and  _544
REMARK  227  A    between atoms: _544  and  _545
REMARK  228  A    between atoms: _545  and  _546
REMARK  229  A    between atoms: _549  and  _551
REMARK  230  A    between atoms: _551  and  _552
REMARK  231  A    between atoms: _551  and  _554
REMARK  232  A    between atoms: _554  and  _555
REMARK  233  A    between atoms: _561  and  _563
REMARK  234  A    between atoms: _563  and  _564
REMARK  235  A    between atoms: _563  and  _566
REMARK  236  A    between atoms: _566  and  _567
REMARK  237  A    between atoms: _571  and  _572
REMARK  238  A    between atoms: _577  and  _579
REMARK  239  A    between atoms: _579  and  _580
REMARK  240  A    between atoms: _579  and  _582
REMARK  241  A    between atoms: _582  and  _583
REMARK  242  A    between atoms: _583  and  _584
REMARK  243  A    between atoms: _589  and  _591
REMARK  244  A    between atoms: _591  and  _592
REMARK  245  A    between atoms: _591  and  _594
REMARK  246  A    between atoms: _597  and  _599
REMARK  247  A    between atoms: _599  and  _600
REMARK  248  A    between atoms: _599  and  _602
REMARK  249  A    between atoms: _602  and  _603
REMARK  250  A    between atoms: _603  and  _604
REMARK  251  A    between atoms: _606  and  _608
REMARK  252  A    between atoms: _608  and  _609
REMARK  253  A    between atoms: _612  and  _614
REMARK  254  A    between atoms: _614  and  _615
REMARK  255  A    between atoms: _614  and  _617
REMARK  256  A    between atoms: _617  and  _618
REMARK  257  A    between atoms: _621  and  _623
REMARK  258  A    between atoms: _623  and  _624
REMARK  259  A    between atoms: _627  and  _629
REMARK  260  A    between atoms: _629  and  _630
REMARK  261  A    between atoms: _629  and  _632
REMARK  262  A    between atoms: _632  and  _633
REMARK  263  A    between atoms: _636  and  _638
REMARK  264  A    between atoms: _638  and  _639
REMARK  265  A    between atoms: _638  and  _641
REMARK  266  A    between atoms: _641  and  _642
REMARK  267  A    between atoms: _645  and  _647
REMARK  268  A    between atoms: _647  and  _648
REMARK  269  A    between atoms: _647  and  _650
REMARK  270  A    between atoms: _650  and  _651
REMARK  271  A    between atoms: _654  and  _656
REMARK  272  A    between atoms: _656  and  _657
REMARK  273  A    between atoms: _656  and  _659
REMARK  274  A    between atoms: _659  and  _660
REMARK  275  A    between atoms: _660  and  _661
REMARK  276  A    between atoms: _666  and  _668
REMARK  277  A    between atoms: _668  and  _669
REMARK  278  A    between atoms: _672  and  _674
REMARK  279  A    between atoms: _674  and  _675
REMARK  280  A    between atoms: _674  and  _677
REMARK  281  A    between atoms: _680  and  _682
REMARK  282  A    between atoms: _682  and  _683
REMARK  283  A    between atoms: _682  and  _685
REMARK  284  A    between atoms: _685  and  _686
REMARK  285  A    between atoms: _689  and  _691
REMARK  286  A    between atoms: _691  and  _692
REMARK  287  A    between atoms: _691  and  _694
REMARK  288  A    between atoms: _694  and  _695
REMARK  289  A    between atoms: _695  and  _696
REMARK                            x       y       z     vdW  Elec       q    Type
REMARK                         _______ _______ _______ _____ _____    ______ ____
ROOT
ATOM      1  O   HOH     1      10.367  66.539  55.307  0.00  0.00    +0.000 OA
ENDROOT
TORSDOF 0
REMARK  Name = ../refined-set-2016/3vjc/3vjc_pocket.pdb
REMARK  289 active torsions:
REMARK  status: ('A' for Active; 'I' for Inactive)
REMARK    1  A    between atoms: _1  and  _3
REMARK    2  A    between atoms: _3  and  _4
REMARK    3  A    between atoms: _3  and  _6
REMARK    4  A    between atoms: _6  and  _7
REMARK    5  A    between atoms: _10  and  _12
REMARK    6  A    between atoms: _12  and  _13
REMARK    7  A    between atoms: _12  and  _15
REMARK    8  A    between atoms: _15  and  _16
REMARK    9  A    between atoms: _21  and  _23
REMARK   10  A    between atoms: _23  and  _24
REMARK   11  A    between atoms: _23  and  _26
REMARK   12  A    between atoms: _26  and  _27
REMARK   13  A    between atoms: _27  and  _28
REMARK   14  A    between atoms: _33  and  _35
REMARK   15  A    between atoms: _35  and  _36
REMARK   16  A    between atoms: _35  and  _38
REMARK   17  A    between atoms: _38  and  _39
REMARK   18  A    between atoms: _42  and  _44
REMARK   19  A    between atoms: _44  and  _45
REMARK   20  A    between atoms: _44  and  _47
REMARK   21  A    between atoms: _47  and  _48
REMARK   22  A    between atoms: _50  and  _52
REMARK   23  A    between atoms: _52  and  _53
REMARK   24  A    between atoms: _52  and  _55
REMARK   25  A    between atoms: _55  and  _56
REMARK   26  A    between atoms: _56  and  _57
REMARK   27  A    between atoms: _57  and  _58
REMARK   28  A    between atoms: _67  and  _69
REMARK   29  A    between atoms: _69  and  _70
REMARK   30  A    between atoms: _69  and  _72
REMARK   31  A    between atoms: _72  and  _73
REMARK   32  A    between atoms: _75  and  _77
REMARK   33  A    between atoms: _77  and  _78
REMARK   34  A    between atoms: _77  and  _80
REMARK   35  A    between atoms: _80  and  _81
REMARK   36  A    between atoms: _87  and  _89
REMARK   37  A    between atoms: _89  and  _90
REMARK   38  A    between atoms: _93  and  _95
REMARK   39  A    between atoms: _95  and  _96
REMARK   40  A    between atoms: _99  and  _101
REMARK   41  A    between atoms: _101  and  _102
REMARK   42  A    between atoms: _101  and  _104
REMARK   43  A    between atoms: _107  and  _109
REMARK   44  A    between atoms: _109  and  _110
REMARK   45  A    between atoms: _109  and  _112
REMARK   46  A    between atoms: _112  and  _113
REMARK   47  A    between atoms: _116  and  _118
REMARK   48  A    between atoms: _118  and  _119
REMARK   49  A    between atoms: _118  and  _121
REMARK   50  A    between atoms: _121  and  _122
REMARK   51  A    between atoms: _125  and  _127
REMARK   52  A    between atoms: _127  and  _128
REMARK   53  A    between atoms: _131  and  _133
REMARK   54  A    between atoms: _133  and  _134
REMARK   55  A    between atoms: _133  and  _136
REMARK   56  A    between atoms: _139  and  _141
REMARK   57  A    between atoms: _141  and  _142
REMARK   58  A    between atoms: _141  and  _144
REMARK   59  A    between atoms: _146  and  _148
REMARK   60  A    between atoms: _148  and  _149
REMARK   61  A    between atoms: _148  and  _151
REMARK   62  A    between atoms: _151  and  _152
REMARK   63  A    between atoms: _155  and  _157
REMARK   64  A    between atoms: _157  and  _158
REMARK   65  A    between atoms: _157  and  _160
REMARK   66  A    between atoms: _160  and  _161
REMARK   67  A    between atoms: _167  and  _169
REMARK   68  A    between atoms: _169  and  _170
REMARK   69  A    between atoms: _169  and  _172
REMARK   70  A    between atoms: _172  and  _173
REMARK   71  A    between atoms: _178  and  _179
REMARK   72  A    between atoms: _181  and  _183
REMARK   73  A    between atoms: _183  and  _184
REMARK   74  A    between atoms: _183  and  _186
REMARK   75  A    between atoms: _186  and  _187
REMARK   76  A    between atoms: _190  and  _192
REMARK   77  A    between atoms: _192  and  _193
REMARK   78  A    between atoms: _192  and  _195
REMARK   79  A    between atoms: _198  and  _200
REMARK   80  A    between atoms: _200  and  _201
REMARK   81  A    between atoms: _200  and  _203
REMARK   82  A    between atoms: _203  and  _204
REMARK   83  A    between atoms: _207  and  _209
REMARK   84  A    between atoms: _209  and  _210
REMARK   85  A    between atoms: _209  and  _212
REMARK   86  A    between atoms: _212  and  _213
REMARK   87  A    between atoms: _213  and  _214
REMARK   88  A    between atoms: _214  and  _215
REMARK   89  A    between atoms: _224  and  _226
REMARK   90  A    between atoms: _226  and  _227
REMARK   91  A    between atoms: _230  and  _232
REMARK   92  A    between atoms: _232  and  _233
REMARK   93  A    between atoms: _232  and  _235
REMARK   94  A    between atoms: _235  and  _236
REMARK   95  A    between atoms: _239  and  _241
REMARK   96  A    between atoms: _241  and  _242
REMARK   97  A    between atoms: _241  and  _244
REMARK   98  A    between atoms: _244  and  _245
REMARK   99  A    between atoms: _248  and  _250
REMARK  100  A    between atoms: _250  and  _251
REMARK  101  A    between atoms: _250  and  _253
REMARK  102  A    between atoms: _253  and  _254
REMARK  103  A    between atoms: _257  and  _259
REMARK  104  A    between atoms: _259  and  _260
REMARK  105  A    between atoms: _259  and  _262
REMARK  106  A    between atoms: _262  and  _263
REMARK  107  A    between atoms: _263  and  _264
REMARK  108  A    between atoms: _267  and  _269
REMARK  109  A    between atoms: _269  and  _270
REMARK  110  A    between atoms: _269  and  _272
REMARK  111  A    between atoms: _272  and  _273
REMARK  112  A    between atoms: _276  and  _278
REMARK  113  A    between atoms: _278  and  _279
REMARK  114  A    between atoms: _278  and  _281
REMARK  115  A    between atoms: _281  and  _282
REMARK  116  A    between atoms: _282  and  _283
REMARK  117  A    between atoms: _283  and  _284
REMARK  118  A    between atoms: _284  and  _285
REMARK  119  A    between atoms: _289  and  _291
REMARK  120  A    between atoms: _291  and  _292
REMARK  121  A    between atoms: _291  and  _294
REMARK  122  A    between atoms: _294  and  _295
REMARK  123  A    between atoms: _298  and  _300
REMARK  124  A    between atoms: _300  and  _301
REMARK  125  A    between atoms: _300  and  _303
REMARK  126  A    between atoms: _303  and  _304
REMARK  127  A    between atoms: _307  and  _309
REMARK  128  A    between atoms: _309  and  _310
REMARK  129  A    between atoms: _309  and  _312
REMARK  130  A    between atoms: _312  and  _313
REMARK  131  A    between atoms: _313  and  _314
REMARK  132  A    between atoms: _316  and  _318
REMARK  133  A    between atoms: _318  and  _319
REMARK  134  A    between atoms: _318  and  _321
REMARK  135  A    between atoms: _321  and  _322
REMARK  136  A    between atoms: _322  and  _323
REMARK  137  A    between atoms: _325  and  _327
REMARK  138  A    between atoms: _327  and  _328
REMARK  139  A    between atoms: _327  and  _330
REMARK  140  A    between atoms: _330  and  _331
REMARK  141  A    between atoms: _336  and  _337
REMARK  142  A    between atoms: _339  and  _341
REMARK  143  A    between atoms: _341  and  _342
REMARK  144  A    between atoms: _341  and  _344
REMARK  145  A    between atoms: _344  and  _345
REMARK  146  A    between atoms: _350  and  _351
REMARK  147  A    between atoms: _353  and  _355
REMARK  148  A    between atoms: _355  and  _356
REMARK  149  A    between atoms: _355  and  _358
REMARK  150  A    between atoms: _361  and  _363
REMARK  151  A    between atoms: _363  and  _364
REMARK  152  A    between atoms: _367  and  _369
REMARK  153  A    between atoms: _369  and  _370
REMARK  154  A    between atoms: _372  and  _374
REMARK  155  A    between atoms: _374  and  _375
REMARK  156  A    between atoms: _374  and  _377
REMARK  157  A    between atoms: _377  and  _378
REMARK  158  A    between atoms: _381  and  _383
REMARK  159  A    between atoms: _383  and  _384
REMARK  160  A    between atoms: _383  and  _386
REMARK  161  A    between atoms: _389  and  _391
REMARK  162  A    between atoms: _391  and  _392
REMARK  163  A    between atoms: _394  and  _396
REMARK  164  A    between atoms: _396  and  _397
REMARK  165  A    between atoms: _399  and  _401
REMARK  166  A    between atoms: _401  and  _402
REMARK  167  A    between atoms: _401  and  _404
REMARK  168  A    between atoms: _404  and  _405
REMARK  169  A    between atoms: _408  and  _410
REMARK  170  A    between atoms: _410  and  _411
REMARK  171  A    between atoms: _410  and  _413
REMARK  172  A    between atoms: _413  and  _414
REMARK  173  A    between atoms: _417  and  _419
REMARK  174  A    between atoms: _419  and  _420
REMARK  175  A    between atoms: _419  and  _422
REMARK  176  A    between atoms: _422  and  _423
REMARK  177  A    between atoms: _429  and  _431
REMARK  178  A    between atoms: _431  and  _432
REMARK  179  A    between atoms: _431  and  _434
REMARK  180  A    between atoms: _434  and  _435
REMARK  181  A    between atoms: _435  and  _436
REMARK  182  A    between atoms: _438  and  _440
REMARK  183  A    between atoms: _440  and  _441
REMARK  184  A    between atoms: _440  and  _443
REMARK  185  A    between atoms: _443  and  _444
REMARK  186  A    between atoms: _450  and  _452
REMARK  187  A    between atoms: _452  and  _453
REMARK  188  A    between atoms: _452  and  _455
REMARK  189  A    between atoms: _455  and  _456
REMARK  190  A    between atoms: _459  and  _461
REMARK  191  A    between atoms: _461  and  _462
REMARK  192  A    between atoms: _461  and  _464
REMARK  193  A    between atoms: _464  and  _465
REMARK  194  A    between atoms: _465  and  _466
REMARK  195  A    between atoms: _471  and  _473
REMARK  196  A    between atoms: _473  and  _474
REMARK  197  A    between atoms: _473  and  _476
REMARK  198  A    between atoms: _476  and  _477
REMARK  199  A    between atoms: _477  and  _478
REMARK  200  A    between atoms: _478  and  _479
REMARK  201  A    between atoms: _479  and  _480
REMARK  202  A    between atoms: _484  and  _486
REMARK  203  A    between atoms: _486  and  _487
REMARK  204  A    between atoms: _486  and  _489
REMARK  205  A    between atoms: _489  and  _490
REMARK  206  A    between atoms: _493  and  _495
REMARK  207  A    between atoms: _495  and  _496
REMARK  208  A    between atoms: _495  and  _498
REMARK  209  A    between atoms: _498  and  _499
REMARK  210  A    between atoms: _504  and  _506
REMARK  211  A    between atoms: _506  and  _507
REMARK  212  A    between atoms: _506  and  _509
REMARK  213  A    between atoms: _509  and  _510
REMARK  214  A    between atoms: _513  and  _515
REMARK  215  A    between atoms: _515  and  _516
REMARK  216  A    between atoms: _515  and  _518
REMARK  217  A    between atoms: _518  and  _519
REMARK  218  A    between atoms: _519  and  _520
REMARK  219  A    between atoms: _520  and  _521
REMARK  220  A    between atoms: _530  and  _532
REMARK  221  A    between atoms: _532  and  _533
REMARK  222  A    between atoms: _532  and  _535
REMARK  223  A    between atoms: _535  and  _536
REMARK  224  A    between atoms: _539  and  _541
REMARK  225  A    between atoms: _541  and  _542
REMARK  226  A    between atoms: _541  and  _544
REMARK  227  A    between atoms: _544  and  _545
REMARK  228  A    between atoms: _545  and  _546
REMARK  229  A    between atoms: _549  and  _551
REMARK  230  A    between atoms: _551  and  _552
REMARK  231  A    between atoms: _551  and  _554
REMARK  232  A    between atoms: _554  and  _555
REMARK  233  A    between atoms: _561  and  _563
REMARK  234  A    between atoms: _563  and  _564
REMARK  235  A    between atoms: _563  and  _566
REMARK  236  A    between atoms: _566  and  _567
REMARK  237  A    between atoms: _571  and  _572
REMARK  238  A    between atoms: _577  and  _579
REMARK  239  A    between atoms: _579  and  _580
REMARK  240  A    between atoms: _579  and  _582
REMARK  241  A    between atoms: _582  and  _583
REMARK  242  A    between atoms: _583  and  _584
REMARK  243  A    between atoms: _589  and  _591
REMARK  244  A    between atoms: _591  and  _592
REMARK  245  A    between atoms: _591  and  _594
REMARK  246  A    between atoms: _597  and  _599
REMARK  247  A    between atoms: _599  and  _600
REMARK  248  A    between atoms: _599  and  _602
REMARK  249  A    between atoms: _602  and  _603
REMARK  250  A    between atoms: _603  and  _604
REMARK  251  A    between atoms: _606  and  _608
REMARK  252  A    between atoms: _608  and  _609
REMARK  253  A    between atoms: _612  and  _614
REMARK  254  A    between atoms: _614  and  _615
REMARK  255  A    between atoms: _614  and  _617
REMARK  256  A    between atoms: _617  and  _618
REMARK  257  A    between atoms: _621  and  _623
REMARK  258  A    between atoms: _623  and  _624
REMARK  259  A    between atoms: _627  and  _629
REMARK  260  A    between atoms: _629  and  _630
REMARK  261  A    between atoms: _629  and  _632
REMARK  262  A    between atoms: _632  and  _633
REMARK  263  A    between atoms: _636  and  _638
REMARK  264  A    between atoms: _638  and  _639
REMARK  265  A    between atoms: _638  and  _641
REMARK  266  A    between atoms: _641  and  _642
REMARK  267  A    between atoms: _645  and  _647
REMARK  268  A    between atoms: _647  and  _648
REMARK  269  A    between atoms: _647  and  _650
REMARK  270  A    between atoms: _650  and  _651
REMARK  271  A    between atoms: _654  and  _656
REMARK  272  A    between atoms: _656  and  _657
REMARK  273  A    between atoms: _656  and  _659
REMARK  274  A    between atoms: _659  and  _660
REMARK  275  A    between atoms: _660  and  _661
REMARK  276  A    between atoms: _666  and  _668
REMARK  277  A    between atoms: _668  and  _669
REMARK  278  A    between atoms: _672  and  _674
REMARK  279  A    between atoms: _674  and  _675
REMARK  280  A    between atoms: _674  and  _677
REMARK  281  A    between atoms: _680  and  _682
REMARK  282  A    between atoms: _682  and  _683
REMARK  283  A    between atoms: _682  and  _685
REMARK  284  A    between atoms: _685  and  _686
REMARK  285  A    between atoms: _689  and  _691
REMARK  286  A    between atoms: _691  and  _692
REMARK  287  A    between atoms: _691  and  _694
REMARK  288  A    between atoms: _694  and  _695
REMARK  289  A    between atoms: _695  and  _696
REMARK                            x       y       z     vdW  Elec       q    Type
REMARK                         _______ _______ _______ _____ _____    ______ ____
ROOT
ATOM      1  O   HOH     1      10.425  63.246  52.092  0.00  0.00    +0.000 OA
ENDROOT
TORSDOF 0
REMARK  Name = ../refined-set-2016/3vjc/3vjc_pocket.pdb
REMARK  289 active torsions:
REMARK  status: ('A' for Active; 'I' for Inactive)
REMARK    1  A    between atoms: _1  and  _3
REMARK    2  A    between atoms: _3  and  _4
REMARK    3  A    between atoms: _3  and  _6
REMARK    4  A    between atoms: _6  and  _7
REMARK    5  A    between atoms: _10  and  _12
REMARK    6  A    between atoms: _12  and  _13
REMARK    7  A    between atoms: _12  and  _15
REMARK    8  A    between atoms: _15  and  _16
REMARK    9  A    between atoms: _21  and  _23
REMARK   10  A    between atoms: _23  and  _24
REMARK   11  A    between atoms: _23  and  _26
REMARK   12  A    between atoms: _26  and  _27
REMARK   13  A    between atoms: _27  and  _28
REMARK   14  A    between atoms: _33  and  _35
REMARK   15  A    between atoms: _35  and  _36
REMARK   16  A    between atoms: _35  and  _38
REMARK   17  A    between atoms: _38  and  _39
REMARK   18  A    between atoms: _42  and  _44
REMARK   19  A    between atoms: _44  and  _45
REMARK   20  A    between atoms: _44  and  _47
REMARK   21  A    between atoms: _47  and  _48
REMARK   22  A    between atoms: _50  and  _52
REMARK   23  A    between atoms: _52  and  _53
REMARK   24  A    between atoms: _52  and  _55
REMARK   25  A    between atoms: _55  and  _56
REMARK   26  A    between atoms: _56  and  _57
REMARK   27  A    between atoms: _57  and  _58
REMARK   28  A    between atoms: _67  and  _69
REMARK   29  A    between atoms: _69  and  _70
REMARK   30  A    between atoms: _69  and  _72
REMARK   31  A    between atoms: _72  and  _73
REMARK   32  A    between atoms: _75  and  _77
REMARK   33  A    between atoms: _77  and  _78
REMARK   34  A    between atoms: _77  and  _80
REMARK   35  A    between atoms: _80  and  _81
REMARK   36  A    between atoms: _87  and  _89
REMARK   37  A    between atoms: _89  and  _90
REMARK   38  A    between atoms: _93  and  _95
REMARK   39  A    between atoms: _95  and  _96
REMARK   40  A    between atoms: _99  and  _101
REMARK   41  A    between atoms: _101  and  _102
REMARK   42  A    between atoms: _101  and  _104
REMARK   43  A    between atoms: _107  and  _109
REMARK   44  A    between atoms: _109  and  _110
REMARK   45  A    between atoms: _109  and  _112
REMARK   46  A    between atoms: _112  and  _113
REMARK   47  A    between atoms: _116  and  _118
REMARK   48  A    between atoms: _118  and  _119
REMARK   49  A    between atoms: _118  and  _121
REMARK   50  A    between atoms: _121  and  _122
REMARK   51  A    between atoms: _125  and  _127
REMARK   52  A    between atoms: _127  and  _128
REMARK   53  A    between atoms: _131  and  _133
REMARK   54  A    between atoms: _133  and  _134
REMARK   55  A    between atoms: _133  and  _136
REMARK   56  A    between atoms: _139  and  _141
REMARK   57  A    between atoms: _141  and  _142
REMARK   58  A    between atoms: _141  and  _144
REMARK   59  A    between atoms: _146  and  _148
REMARK   60  A    between atoms: _148  and  _149
REMARK   61  A    between atoms: _148  and  _151
REMARK   62  A    between atoms: _151  and  _152
REMARK   63  A    between atoms: _155  and  _157
REMARK   64  A    between atoms: _157  and  _158
REMARK   65  A    between atoms: _157  and  _160
REMARK   66  A    between atoms: _160  and  _161
REMARK   67  A    between atoms: _167  and  _169
REMARK   68  A    between atoms: _169  and  _170
REMARK   69  A    between atoms: _169  and  _172
REMARK   70  A    between atoms: _172  and  _173
REMARK   71  A    between atoms: _178  and  _179
REMARK   72  A    between atoms: _181  and  _183
REMARK   73  A    between atoms: _183  and  _184
REMARK   74  A    between atoms: _183  and  _186
REMARK   75  A    between atoms: _186  and  _187
REMARK   76  A    between atoms: _190  and  _192
REMARK   77  A    between atoms: _192  and  _193
REMARK   78  A    between atoms: _192  and  _195
REMARK   79  A    between atoms: _198  and  _200
REMARK   80  A    between atoms: _200  and  _201
REMARK   81  A    between atoms: _200  and  _203
REMARK   82  A    between atoms: _203  and  _204
REMARK   83  A    between atoms: _207  and  _209
REMARK   84  A    between atoms: _209  and  _210
REMARK   85  A    between atoms: _209  and  _212
REMARK   86  A    between atoms: _212  and  _213
REMARK   87  A    between atoms: _213  and  _214
REMARK   88  A    between atoms: _214  and  _215
REMARK   89  A    between atoms: _224  and  _226
REMARK   90  A    between atoms: _226  and  _227
REMARK   91  A    between atoms: _230  and  _232
REMARK   92  A    between atoms: _232  and  _233
REMARK   93  A    between atoms: _232  and  _235
REMARK   94  A    between atoms: _235  and  _236
REMARK   95  A    between atoms: _239  and  _241
REMARK   96  A    between atoms: _241  and  _242
REMARK   97  A    between atoms: _241  and  _244
REMARK   98  A    between atoms: _244  and  _245
REMARK   99  A    between atoms: _248  and  _250
REMARK  100  A    between atoms: _250  and  _251
REMARK  101  A    between atoms: _250  and  _253
REMARK  102  A    between atoms: _253  and  _254
REMARK  103  A    between atoms: _257  and  _259
REMARK  104  A    between atoms: _259  and  _260
REMARK  105  A    between atoms: _259  and  _262
REMARK  106  A    between atoms: _262  and  _263
REMARK  107  A    between atoms: _263  and  _264
REMARK  108  A    between atoms: _267  and  _269
REMARK  109  A    between atoms: _269  and  _270
REMARK  110  A    between atoms: _269  and  _272
REMARK  111  A    between atoms: _272  and  _273
REMARK  112  A    between atoms: _276  and  _278
REMARK  113  A    between atoms: _278  and  _279
REMARK  114  A    between atoms: _278  and  _281
REMARK  115  A    between atoms: _281  and  _282
REMARK  116  A    between atoms: _282  and  _283
REMARK  117  A    between atoms: _283  and  _284
REMARK  118  A    between atoms: _284  and  _285
REMARK  119  A    between atoms: _289  and  _291
REMARK  120  A    between atoms: _291  and  _292
REMARK  121  A    between atoms: _291  and  _294
REMARK  122  A    between atoms: _294  and  _295
REMARK  123  A    between atoms: _298  and  _300
REMARK  124  A    between atoms: _300  and  _301
REMARK  125  A    between atoms: _300  and  _303
REMARK  126  A    between atoms: _303  and  _304
REMARK  127  A    between atoms: _307  and  _309
REMARK  128  A    between atoms: _309  and  _310
REMARK  129  A    between atoms: _309  and  _312
REMARK  130  A    between atoms: _312  and  _313
REMARK  131  A    between atoms: _313  and  _314
REMARK  132  A    between atoms: _316  and  _318
REMARK  133  A    between atoms: _318  and  _319
REMARK  134  A    between atoms: _318  and  _321
REMARK  135  A    between atoms: _321  and  _322
REMARK  136  A    between atoms: _322  and  _323
REMARK  137  A    between atoms: _325  and  _327
REMARK  138  A    between atoms: _327  and  _328
REMARK  139  A    between atoms: _327  and  _330
REMARK  140  A    between atoms: _330  and  _331
REMARK  141  A    between atoms: _336  and  _337
REMARK  142  A    between atoms: _339  and  _341
REMARK  143  A    between atoms: _341  and  _342
REMARK  144  A    between atoms: _341  and  _344
REMARK  145  A    between atoms: _344  and  _345
REMARK  146  A    between atoms: _350  and  _351
REMARK  147  A    between atoms: _353  and  _355
REMARK  148  A    between atoms: _355  and  _356
REMARK  149  A    between atoms: _355  and  _358
REMARK  150  A    between atoms: _361  and  _363
REMARK  151  A    between atoms: _363  and  _364
REMARK  152  A    between atoms: _367  and  _369
REMARK  153  A    between atoms: _369  and  _370
REMARK  154  A    between atoms: _372  and  _374
REMARK  155  A    between atoms: _374  and  _375
REMARK  156  A    between atoms: _374  and  _377
REMARK  157  A    between atoms: _377  and  _378
REMARK  158  A    between atoms: _381  and  _383
REMARK  159  A    between atoms: _383  and  _384
REMARK  160  A    between atoms: _383  and  _386
REMARK  161  A    between atoms: _389  and  _391
REMARK  162  A    between atoms: _391  and  _392
REMARK  163  A    between atoms: _394  and  _396
REMARK  164  A    between atoms: _396  and  _397
REMARK  165  A    between atoms: _399  and  _401
REMARK  166  A    between atoms: _401  and  _402
REMARK  167  A    between atoms: _401  and  _404
REMARK  168  A    between atoms: _404  and  _405
REMARK  169  A    between atoms: _408  and  _410
REMARK  170  A    between atoms: _410  and  _411
REMARK  171  A    between atoms: _410  and  _413
REMARK  172  A    between atoms: _413  and  _414
REMARK  173  A    between atoms: _417  and  _419
REMARK  174  A    between atoms: _419  and  _420
REMARK  175  A    between atoms: _419  and  _422
REMARK  176  A    between atoms: _422  and  _423
REMARK  177  A    between atoms: _429  and  _431
REMARK  178  A    between atoms: _431  and  _432
REMARK  179  A    between atoms: _431  and  _434
REMARK  180  A    between atoms: _434  and  _435
REMARK  181  A    between atoms: _435  and  _436
REMARK  182  A    between atoms: _438  and  _440
REMARK  183  A    between atoms: _440  and  _441
REMARK  184  A    between atoms: _440  and  _443
REMARK  185  A    between atoms: _443  and  _444
REMARK  186  A    between atoms: _450  and  _452
REMARK  187  A    between atoms: _452  and  _453
REMARK  188  A    between atoms: _452  and  _455
REMARK  189  A    between atoms: _455  and  _456
REMARK  190  A    between atoms: _459  and  _461
REMARK  191  A    between atoms: _461  and  _462
REMARK  192  A    between atoms: _461  and  _464
REMARK  193  A    between atoms: _464  and  _465
REMARK  194  A    between atoms: _465  and  _466
REMARK  195  A    between atoms: _471  and  _473
REMARK  196  A    between atoms: _473  and  _474
REMARK  197  A    between atoms: _473  and  _476
REMARK  198  A    between atoms: _476  and  _477
REMARK  199  A    between atoms: _477  and  _478
REMARK  200  A    between atoms: _478  and  _479
REMARK  201  A    between atoms: _479  and  _480
REMARK  202  A    between atoms: _484  and  _486
REMARK  203  A    between atoms: _486  and  _487
REMARK  204  A    between atoms: _486  and  _489
REMARK  205  A    between atoms: _489  and  _490
REMARK  206  A    between atoms: _493  and  _495
REMARK  207  A    between atoms: _495  and  _496
REMARK  208  A    between atoms: _495  and  _498
REMARK  209  A    between atoms: _498  and  _499
REMARK  210  A    between atoms: _504  and  _506
REMARK  211  A    between atoms: _506  and  _507
REMARK  212  A    between atoms: _506  and  _509
REMARK  213  A    between atoms: _509  and  _510
REMARK  214  A    between atoms: _513  and  _515
REMARK  215  A    between atoms: _515  and  _516
REMARK  216  A    between atoms: _515  and  _518
REMARK  217  A    between atoms: _518  and  _519
REMARK  218  A    between atoms: _519  and  _520
REMARK  219  A    between atoms: _520  and  _521
REMARK  220  A    between atoms: _530  and  _532
REMARK  221  A    between atoms: _532  and  _533
REMARK  222  A    between atoms: _532  and  _535
REMARK  223  A    between atoms: _535  and  _536
REMARK  224  A    between atoms: _539  and  _541
REMARK  225  A    between atoms: _541  and  _542
REMARK  226  A    between atoms: _541  and  _544
REMARK  227  A    between atoms: _544  and  _545
REMARK  228  A    between atoms: _545  and  _546
REMARK  229  A    between atoms: _549  and  _551
REMARK  230  A    between atoms: _551  and  _552
REMARK  231  A    between atoms: _551  and  _554
REMARK  232  A    between atoms: _554  and  _555
REMARK  233  A    between atoms: _561  and  _563
REMARK  234  A    between atoms: _563  and  _564
REMARK  235  A    between atoms: _563  and  _566
REMARK  236  A    between atoms: _566  and  _567
REMARK  237  A    between atoms: _571  and  _572
REMARK  238  A    between atoms: _577  and  _579
REMARK  239  A    between atoms: _579  and  _580
REMARK  240  A    between atoms: _579  and  _582
REMARK  241  A    between atoms: _582  and  _583
REMARK  242  A    between atoms: _583  and  _584
REMARK  243  A    between atoms: _589  and  _591
REMARK  244  A    between atoms: _591  and  _592
REMARK  245  A    between atoms: _591  and  _594
REMARK  246  A    between atoms: _597  and  _599
REMARK  247  A    between atoms: _599  and  _600
REMARK  248  A    between atoms: _599  and  _602
REMARK  249  A    between atoms: _602  and  _603
REMARK  250  A    between atoms: _603  and  _604
REMARK  251  A    between atoms: _606  and  _608
REMARK  252  A    between atoms: _608  and  _609
REMARK  253  A    between atoms: _612  and  _614
REMARK  254  A    between atoms: _614  and  _615
REMARK  255  A    between atoms: _614  and  _617
REMARK  256  A    between atoms: _617  and  _618
REMARK  257  A    between atoms: _621  and  _623
REMARK  258  A    between atoms: _623  and  _624
REMARK  259  A    between atoms: _627  and  _629
REMARK  260  A    between atoms: _629  and  _630
REMARK  261  A    between atoms: _629  and  _632
REMARK  262  A    between atoms: _632  and  _633
REMARK  263  A    between atoms: _636  and  _638
REMARK  264  A    between atoms: _638  and  _639
REMARK  265  A    between atoms: _638  and  _641
REMARK  266  A    between atoms: _641  and  _642
REMARK  267  A    between atoms: _645  and  _647
REMARK  268  A    between atoms: _647  and  _648
REMARK  269  A    between atoms: _647  and  _650
REMARK  270  A    between atoms: _650  and  _651
REMARK  271  A    between atoms: _654  and  _656
REMARK  272  A    between atoms: _656  and  _657
REMARK  273  A    between atoms: _656  and  _659
REMARK  274  A    between atoms: _659  and  _660
REMARK  275  A    between atoms: _660  and  _661
REMARK  276  A    between atoms: _666  and  _668
REMARK  277  A    between atoms: _668  and  _669
REMARK  278  A    between atoms: _672  and  _674
REMARK  279  A    between atoms: _674  and  _675
REMARK  280  A    between atoms: _674  and  _677
REMARK  281  A    between atoms: _680  and  _682
REMARK  282  A    between atoms: _682  and  _683
REMARK  283  A    between atoms: _682  and  _685
REMARK  284  A    between atoms: _685  and  _686
REMARK  285  A    between atoms: _689  and  _691
REMARK  286  A    between atoms: _691  and  _692
REMARK  287  A    between atoms: _691  and  _694
REMARK  288  A    between atoms: _694  and  _695
REMARK  289  A    between atoms: _695  and  _696
REMARK                            x       y       z     vdW  Elec       q    Type
REMARK                         _______ _______ _______ _____ _____    ______ ____
ROOT
ATOM      1  O   HOH     1      22.333  64.780  57.083  0.00  0.00    +0.000 OA
ENDROOT
TORSDOF 0
REMARK  Name = ../refined-set-2016/3vjc/3vjc_pocket.pdb
REMARK  289 active torsions:
REMARK  status: ('A' for Active; 'I' for Inactive)
REMARK    1  A    between atoms: _1  and  _3
REMARK    2  A    between atoms: _3  and  _4
REMARK    3  A    between atoms: _3  and  _6
REMARK    4  A    between atoms: _6  and  _7
REMARK    5  A    between atoms: _10  and  _12
REMARK    6  A    between atoms: _12  and  _13
REMARK    7  A    between atoms: _12  and  _15
REMARK    8  A    between atoms: _15  and  _16
REMARK    9  A    between atoms: _21  and  _23
REMARK   10  A    between atoms: _23  and  _24
REMARK   11  A    between atoms: _23  and  _26
REMARK   12  A    between atoms: _26  and  _27
REMARK   13  A    between atoms: _27  and  _28
REMARK   14  A    between atoms: _33  and  _35
REMARK   15  A    between atoms: _35  and  _36
REMARK   16  A    between atoms: _35  and  _38
REMARK   17  A    between atoms: _38  and  _39
REMARK   18  A    between atoms: _42  and  _44
REMARK   19  A    between atoms: _44  and  _45
REMARK   20  A    between atoms: _44  and  _47
REMARK   21  A    between atoms: _47  and  _48
REMARK   22  A    between atoms: _50  and  _52
REMARK   23  A    between atoms: _52  and  _53
REMARK   24  A    between atoms: _52  and  _55
REMARK   25  A    between atoms: _55  and  _56
REMARK   26  A    between atoms: _56  and  _57
REMARK   27  A    between atoms: _57  and  _58
REMARK   28  A    between atoms: _67  and  _69
REMARK   29  A    between atoms: _69  and  _70
REMARK   30  A    between atoms: _69  and  _72
REMARK   31  A    between atoms: _72  and  _73
REMARK   32  A    between atoms: _75  and  _77
REMARK   33  A    between atoms: _77  and  _78
REMARK   34  A    between atoms: _77  and  _80
REMARK   35  A    between atoms: _80  and  _81
REMARK   36  A    between atoms: _87  and  _89
REMARK   37  A    between atoms: _89  and  _90
REMARK   38  A    between atoms: _93  and  _95
REMARK   39  A    between atoms: _95  and  _96
REMARK   40  A    between atoms: _99  and  _101
REMARK   41  A    between atoms: _101  and  _102
REMARK   42  A    between atoms: _101  and  _104
REMARK   43  A    between atoms: _107  and  _109
REMARK   44  A    between atoms: _109  and  _110
REMARK   45  A    between atoms: _109  and  _112
REMARK   46  A    between atoms: _112  and  _113
REMARK   47  A    between atoms: _116  and  _118
REMARK   48  A    between atoms: _118  and  _119
REMARK   49  A    between atoms: _118  and  _121
REMARK   50  A    between atoms: _121  and  _122
REMARK   51  A    between atoms: _125  and  _127
REMARK   52  A    between atoms: _127  and  _128
REMARK   53  A    between atoms: _131  and  _133
REMARK   54  A    between atoms: _133  and  _134
REMARK   55  A    between atoms: _133  and  _136
REMARK   56  A    between atoms: _139  and  _141
REMARK   57  A    between atoms: _141  and  _142
REMARK   58  A    between atoms: _141  and  _144
REMARK   59  A    between atoms: _146  and  _148
REMARK   60  A    between atoms: _148  and  _149
REMARK   61  A    between atoms: _148  and  _151
REMARK   62  A    between atoms: _151  and  _152
REMARK   63  A    between atoms: _155  and  _157
REMARK   64  A    between atoms: _157  and  _158
REMARK   65  A    between atoms: _157  and  _160
REMARK   66  A    between atoms: _160  and  _161
REMARK   67  A    between atoms: _167  and  _169
REMARK   68  A    between atoms: _169  and  _170
REMARK   69  A    between atoms: _169  and  _172
REMARK   70  A    between atoms: _172  and  _173
REMARK   71  A    between atoms: _178  and  _179
REMARK   72  A    between atoms: _181  and  _183
REMARK   73  A    between atoms: _183  and  _184
REMARK   74  A    between atoms: _183  and  _186
REMARK   75  A    between atoms: _186  and  _187
REMARK   76  A    between atoms: _190  and  _192
REMARK   77  A    between atoms: _192  and  _193
REMARK   78  A    between atoms: _192  and  _195
REMARK   79  A    between atoms: _198  and  _200
REMARK   80  A    between atoms: _200  and  _201
REMARK   81  A    between atoms: _200  and  _203
REMARK   82  A    between atoms: _203  and  _204
REMARK   83  A    between atoms: _207  and  _209
REMARK   84  A    between atoms: _209  and  _210
REMARK   85  A    between atoms: _209  and  _212
REMARK   86  A    between atoms: _212  and  _213
REMARK   87  A    between atoms: _213  and  _214
REMARK   88  A    between atoms: _214  and  _215
REMARK   89  A    between atoms: _224  and  _226
REMARK   90  A    between atoms: _226  and  _227
REMARK   91  A    between atoms: _230  and  _232
REMARK   92  A    between atoms: _232  and  _233
REMARK   93  A    between atoms: _232  and  _235
REMARK   94  A    between atoms: _235  and  _236
REMARK   95  A    between atoms: _239  and  _241
REMARK   96  A    between atoms: _241  and  _242
REMARK   97  A    between atoms: _241  and  _244
REMARK   98  A    between atoms: _244  and  _245
REMARK   99  A    between atoms: _248  and  _250
REMARK  100  A    between atoms: _250  and  _251
REMARK  101  A    between atoms: _250  and  _253
REMARK  102  A    between atoms: _253  and  _254
REMARK  103  A    between atoms: _257  and  _259
REMARK  104  A    between atoms: _259  and  _260
REMARK  105  A    between atoms: _259  and  _262
REMARK  106  A    between atoms: _262  and  _263
REMARK  107  A    between atoms: _263  and  _264
REMARK  108  A    between atoms: _267  and  _269
REMARK  109  A    between atoms: _269  and  _270
REMARK  110  A    between atoms: _269  and  _272
REMARK  111  A    between atoms: _272  and  _273
REMARK  112  A    between atoms: _276  and  _278
REMARK  113  A    between atoms: _278  and  _279
REMARK  114  A    between atoms: _278  and  _281
REMARK  115  A    between atoms: _281  and  _282
REMARK  116  A    between atoms: _282  and  _283
REMARK  117  A    between atoms: _283  and  _284
REMARK  118  A    between atoms: _284  and  _285
REMARK  119  A    between atoms: _289  and  _291
REMARK  120  A    between atoms: _291  and  _292
REMARK  121  A    between atoms: _291  and  _294
REMARK  122  A    between atoms: _294  and  _295
REMARK  123  A    between atoms: _298  and  _300
REMARK  124  A    between atoms: _300  and  _301
REMARK  125  A    between atoms: _300  and  _303
REMARK  126  A    between atoms: _303  and  _304
REMARK  127  A    between atoms: _307  and  _309
REMARK  128  A    between atoms: _309  and  _310
REMARK  129  A    between atoms: _309  and  _312
REMARK  130  A    between atoms: _312  and  _313
REMARK  131  A    between atoms: _313  and  _314
REMARK  132  A    between atoms: _316  and  _318
REMARK  133  A    between atoms: _318  and  _319
REMARK  134  A    between atoms: _318  and  _321
REMARK  135  A    between atoms: _321  and  _322
REMARK  136  A    between atoms: _322  and  _323
REMARK  137  A    between atoms: _325  and  _327
REMARK  138  A    between atoms: _327  and  _328
REMARK  139  A    between atoms: _327  and  _330
REMARK  140  A    between atoms: _330  and  _331
REMARK  141  A    between atoms: _336  and  _337
REMARK  142  A    between atoms: _339  and  _341
REMARK  143  A    between atoms: _341  and  _342
REMARK  144  A    between atoms: _341  and  _344
REMARK  145  A    between atoms: _344  and  _345
REMARK  146  A    between atoms: _350  and  _351
REMARK  147  A    between atoms: _353  and  _355
REMARK  148  A    between atoms: _355  and  _356
REMARK  149  A    between atoms: _355  and  _358
REMARK  150  A    between atoms: _361  and  _363
REMARK  151  A    between atoms: _363  and  _364
REMARK  152  A    between atoms: _367  and  _369
REMARK  153  A    between atoms: _369  and  _370
REMARK  154  A    between atoms: _372  and  _374
REMARK  155  A    between atoms: _374  and  _375
REMARK  156  A    between atoms: _374  and  _377
REMARK  157  A    between atoms: _377  and  _378
REMARK  158  A    between atoms: _381  and  _383
REMARK  159  A    between atoms: _383  and  _384
REMARK  160  A    between atoms: _383  and  _386
REMARK  161  A    between atoms: _389  and  _391
REMARK  162  A    between atoms: _391  and  _392
REMARK  163  A    between atoms: _394  and  _396
REMARK  164  A    between atoms: _396  and  _397
REMARK  165  A    between atoms: _399  and  _401
REMARK  166  A    between atoms: _401  and  _402
REMARK  167  A    between atoms: _401  and  _404
REMARK  168  A    between atoms: _404  and  _405
REMARK  169  A    between atoms: _408  and  _410
REMARK  170  A    between atoms: _410  and  _411
REMARK  171  A    between atoms: _410  and  _413
REMARK  172  A    between atoms: _413  and  _414
REMARK  173  A    between atoms: _417  and  _419
REMARK  174  A    between atoms: _419  and  _420
REMARK  175  A    between atoms: _419  and  _422
REMARK  176  A    between atoms: _422  and  _423
REMARK  177  A    between atoms: _429  and  _431
REMARK  178  A    between atoms: _431  and  _432
REMARK  179  A    between atoms: _431  and  _434
REMARK  180  A    between atoms: _434  and  _435
REMARK  181  A    between atoms: _435  and  _436
REMARK  182  A    between atoms: _438  and  _440
REMARK  183  A    between atoms: _440  and  _441
REMARK  184  A    between atoms: _440  and  _443
REMARK  185  A    between atoms: _443  and  _444
REMARK  186  A    between atoms: _450  and  _452
REMARK  187  A    between atoms: _452  and  _453
REMARK  188  A    between atoms: _452  and  _455
REMARK  189  A    between atoms: _455  and  _456
REMARK  190  A    between atoms: _459  and  _461
REMARK  191  A    between atoms: _461  and  _462
REMARK  192  A    between atoms: _461  and  _464
REMARK  193  A    between atoms: _464  and  _465
REMARK  194  A    between atoms: _465  and  _466
REMARK  195  A    between atoms: _471  and  _473
REMARK  196  A    between atoms: _473  and  _474
REMARK  197  A    between atoms: _473  and  _476
REMARK  198  A    between atoms: _476  and  _477
REMARK  199  A    between atoms: _477  and  _478
REMARK  200  A    between atoms: _478  and  _479
REMARK  201  A    between atoms: _479  and  _480
REMARK  202  A    between atoms: _484  and  _486
REMARK  203  A    between atoms: _486  and  _487
REMARK  204  A    between atoms: _486  and  _489
REMARK  205  A    between atoms: _489  and  _490
REMARK  206  A    between atoms: _493  and  _495
REMARK  207  A    between atoms: _495  and  _496
REMARK  208  A    between atoms: _495  and  _498
REMARK  209  A    between atoms: _498  and  _499
REMARK  210  A    between atoms: _504  and  _506
REMARK  211  A    between atoms: _506  and  _507
REMARK  212  A    between atoms: _506  and  _509
REMARK  213  A    between atoms: _509  and  _510
REMARK  214  A    between atoms: _513  and  _515
REMARK  215  A    between atoms: _515  and  _516
REMARK  216  A    between atoms: _515  and  _518
REMARK  217  A    between atoms: _518  and  _519
REMARK  218  A    between atoms: _519  and  _520
REMARK  219  A    between atoms: _520  and  _521
REMARK  220  A    between atoms: _530  and  _532
REMARK  221  A    between atoms: _532  and  _533
REMARK  222  A    between atoms: _532  and  _535
REMARK  223  A    between atoms: _535  and  _536
REMARK  224  A    between atoms: _539  and  _541
REMARK  225  A    between atoms: _541  and  _542
REMARK  226  A    between atoms: _541  and  _544
REMARK  227  A    between atoms: _544  and  _545
REMARK  228  A    between atoms: _545  and  _546
REMARK  229  A    between atoms: _549  and  _551
REMARK  230  A    between atoms: _551  and  _552
REMARK  231  A    between atoms: _551  and  _554
REMARK  232  A    between atoms: _554  and  _555
REMARK  233  A    between atoms: _561  and  _563
REMARK  234  A    between atoms: _563  and  _564
REMARK  235  A    between atoms: _563  and  _566
REMARK  236  A    between atoms: _566  and  _567
REMARK  237  A    between atoms: _571  and  _572
REMARK  238  A    between atoms: _577  and  _579
REMARK  239  A    between atoms: _579  and  _580
REMARK  240  A    between atoms: _579  and  _582
REMARK  241  A    between atoms: _582  and  _583
REMARK  242  A    between atoms: _583  and  _584
REMARK  243  A    between atoms: _589  and  _591
REMARK  244  A    between atoms: _591  and  _592
REMARK  245  A    between atoms: _591  and  _594
REMARK  246  A    between atoms: _597  and  _599
REMARK  247  A    between atoms: _599  and  _600
REMARK  248  A    between atoms: _599  and  _602
REMARK  249  A    between atoms: _602  and  _603
REMARK  250  A    between atoms: _603  and  _604
REMARK  251  A    between atoms: _606  and  _608
REMARK  252  A    between atoms: _608  and  _609
REMARK  253  A    between atoms: _612  and  _614
REMARK  254  A    between atoms: _614  and  _615
REMARK  255  A    between atoms: _614  and  _617
REMARK  256  A    between atoms: _617  and  _618
REMARK  257  A    between atoms: _621  and  _623
REMARK  258  A    between atoms: _623  and  _624
REMARK  259  A    between atoms: _627  and  _629
REMARK  260  A    between atoms: _629  and  _630
REMARK  261  A    between atoms: _629  and  _632
REMARK  262  A    between atoms: _632  and  _633
REMARK  263  A    between atoms: _636  and  _638
REMARK  264  A    between atoms: _638  and  _639
REMARK  265  A    between atoms: _638  and  _641
REMARK  266  A    between atoms: _641  and  _642
REMARK  267  A    between atoms: _645  and  _647
REMARK  268  A    between atoms: _647  and  _648
REMARK  269  A    between atoms: _647  and  _650
REMARK  270  A    between atoms: _650  and  _651
REMARK  271  A    between atoms: _654  and  _656
REMARK  272  A    between atoms: _656  and  _657
REMARK  273  A    between atoms: _656  and  _659
REMARK  274  A    between atoms: _659  and  _660
REMARK  275  A    between atoms: _660  and  _661
REMARK  276  A    between atoms: _666  and  _668
REMARK  277  A    between atoms: _668  and  _669
REMARK  278  A    between atoms: _672  and  _674
REMARK  279  A    between atoms: _674  and  _675
REMARK  280  A    between atoms: _674  and  _677
REMARK  281  A    between atoms: _680  and  _682
REMARK  282  A    between atoms: _682  and  _683
REMARK  283  A    between atoms: _682  and  _685
REMARK  284  A    between atoms: _685  and  _686
REMARK  285  A    between atoms: _689  and  _691
REMARK  286  A    between atoms: _691  and  _692
REMARK  287  A    between atoms: _691  and  _694
REMARK  288  A    between atoms: _694  and  _695
REMARK  289  A    between atoms: _695  and  _696
REMARK                            x       y       z     vdW  Elec       q    Type
REMARK                         _______ _______ _______ _____ _____    ______ ____
ROOT
ATOM      1  O   HOH     1      18.360  57.545  57.443  0.00  0.00    +0.000 OA
ENDROOT
TORSDOF 0
REMARK  Name = ../refined-set-2016/3vjc/3vjc_pocket.pdb
REMARK  289 active torsions:
REMARK  status: ('A' for Active; 'I' for Inactive)
REMARK    1  A    between atoms: _1  and  _3
REMARK    2  A    between atoms: _3  and  _4
REMARK    3  A    between atoms: _3  and  _6
REMARK    4  A    between atoms: _6  and  _7
REMARK    5  A    between atoms: _10  and  _12
REMARK    6  A    between atoms: _12  and  _13
REMARK    7  A    between atoms: _12  and  _15
REMARK    8  A    between atoms: _15  and  _16
REMARK    9  A    between atoms: _21  and  _23
REMARK   10  A    between atoms: _23  and  _24
REMARK   11  A    between atoms: _23  and  _26
REMARK   12  A    between atoms: _26  and  _27
REMARK   13  A    between atoms: _27  and  _28
REMARK   14  A    between atoms: _33  and  _35
REMARK   15  A    between atoms: _35  and  _36
REMARK   16  A    between atoms: _35  and  _38
REMARK   17  A    between atoms: _38  and  _39
REMARK   18  A    between atoms: _42  and  _44
REMARK   19  A    between atoms: _44  and  _45
REMARK   20  A    between atoms: _44  and  _47
REMARK   21  A    between atoms: _47  and  _48
REMARK   22  A    between atoms: _50  and  _52
REMARK   23  A    between atoms: _52  and  _53
REMARK   24  A    between atoms: _52  and  _55
REMARK   25  A    between atoms: _55  and  _56
REMARK   26  A    between atoms: _56  and  _57
REMARK   27  A    between atoms: _57  and  _58
REMARK   28  A    between atoms: _67  and  _69
REMARK   29  A    between atoms: _69  and  _70
REMARK   30  A    between atoms: _69  and  _72
REMARK   31  A    between atoms: _72  and  _73
REMARK   32  A    between atoms: _75  and  _77
REMARK   33  A    between atoms: _77  and  _78
REMARK   34  A    between atoms: _77  and  _80
REMARK   35  A    between atoms: _80  and  _81
REMARK   36  A    between atoms: _87  and  _89
REMARK   37  A    between atoms: _89  and  _90
REMARK   38  A    between atoms: _93  and  _95
REMARK   39  A    between atoms: _95  and  _96
REMARK   40  A    between atoms: _99  and  _101
REMARK   41  A    between atoms: _101  and  _102
REMARK   42  A    between atoms: _101  and  _104
REMARK   43  A    between atoms: _107  and  _109
REMARK   44  A    between atoms: _109  and  _110
REMARK   45  A    between atoms: _109  and  _112
REMARK   46  A    between atoms: _112  and  _113
REMARK   47  A    between atoms: _116  and  _118
REMARK   48  A    between atoms: _118  and  _119
REMARK   49  A    between atoms: _118  and  _121
REMARK   50  A    between atoms: _121  and  _122
REMARK   51  A    between atoms: _125  and  _127
REMARK   52  A    between atoms: _127  and  _128
REMARK   53  A    between atoms: _131  and  _133
REMARK   54  A    between atoms: _133  and  _134
REMARK   55  A    between atoms: _133  and  _136
REMARK   56  A    between atoms: _139  and  _141
REMARK   57  A    between atoms: _141  and  _142
REMARK   58  A    between atoms: _141  and  _144
REMARK   59  A    between atoms: _146  and  _148
REMARK   60  A    between atoms: _148  and  _149
REMARK   61  A    between atoms: _148  and  _151
REMARK   62  A    between atoms: _151  and  _152
REMARK   63  A    between atoms: _155  and  _157
REMARK   64  A    between atoms: _157  and  _158
REMARK   65  A    between atoms: _157  and  _160
REMARK   66  A    between atoms: _160  and  _161
REMARK   67  A    between atoms: _167  and  _169
REMARK   68  A    between atoms: _169  and  _170
REMARK   69  A    between atoms: _169  and  _172
REMARK   70  A    between atoms: _172  and  _173
REMARK   71  A    between atoms: _178  and  _179
REMARK   72  A    between atoms: _181  and  _183
REMARK   73  A    between atoms: _183  and  _184
REMARK   74  A    between atoms: _183  and  _186
REMARK   75  A    between atoms: _186  and  _187
REMARK   76  A    between atoms: _190  and  _192
REMARK   77  A    between atoms: _192  and  _193
REMARK   78  A    between atoms: _192  and  _195
REMARK   79  A    between atoms: _198  and  _200
REMARK   80  A    between atoms: _200  and  _201
REMARK   81  A    between atoms: _200  and  _203
REMARK   82  A    between atoms: _203  and  _204
REMARK   83  A    between atoms: _207  and  _209
REMARK   84  A    between atoms: _209  and  _210
REMARK   85  A    between atoms: _209  and  _212
REMARK   86  A    between atoms: _212  and  _213
REMARK   87  A    between atoms: _213  and  _214
REMARK   88  A    between atoms: _214  and  _215
REMARK   89  A    between atoms: _224  and  _226
REMARK   90  A    between atoms: _226  and  _227
REMARK   91  A    between atoms: _230  and  _232
REMARK   92  A    between atoms: _232  and  _233
REMARK   93  A    between atoms: _232  and  _235
REMARK   94  A    between atoms: _235  and  _236
REMARK   95  A    between atoms: _239  and  _241
REMARK   96  A    between atoms: _241  and  _242
REMARK   97  A    between atoms: _241  and  _244
REMARK   98  A    between atoms: _244  and  _245
REMARK   99  A    between atoms: _248  and  _250
REMARK  100  A    between atoms: _250  and  _251
REMARK  101  A    between atoms: _250  and  _253
REMARK  102  A    between atoms: _253  and  _254
REMARK  103  A    between atoms: _257  and  _259
REMARK  104  A    between atoms: _259  and  _260
REMARK  105  A    between atoms: _259  and  _262
REMARK  106  A    between atoms: _262  and  _263
REMARK  107  A    between atoms: _263  and  _264
REMARK  108  A    between atoms: _267  and  _269
REMARK  109  A    between atoms: _269  and  _270
REMARK  110  A    between atoms: _269  and  _272
REMARK  111  A    between atoms: _272  and  _273
REMARK  112  A    between atoms: _276  and  _278
REMARK  113  A    between atoms: _278  and  _279
REMARK  114  A    between atoms: _278  and  _281
REMARK  115  A    between atoms: _281  and  _282
REMARK  116  A    between atoms: _282  and  _283
REMARK  117  A    between atoms: _283  and  _284
REMARK  118  A    between atoms: _284  and  _285
REMARK  119  A    between atoms: _289  and  _291
REMARK  120  A    between atoms: _291  and  _292
REMARK  121  A    between atoms: _291  and  _294
REMARK  122  A    between atoms: _294  and  _295
REMARK  123  A    between atoms: _298  and  _300
REMARK  124  A    between atoms: _300  and  _301
REMARK  125  A    between atoms: _300  and  _303
REMARK  126  A    between atoms: _303  and  _304
REMARK  127  A    between atoms: _307  and  _309
REMARK  128  A    between atoms: _309  and  _310
REMARK  129  A    between atoms: _309  and  _312
REMARK  130  A    between atoms: _312  and  _313
REMARK  131  A    between atoms: _313  and  _314
REMARK  132  A    between atoms: _316  and  _318
REMARK  133  A    between atoms: _318  and  _319
REMARK  134  A    between atoms: _318  and  _321
REMARK  135  A    between atoms: _321  and  _322
REMARK  136  A    between atoms: _322  and  _323
REMARK  137  A    between atoms: _325  and  _327
REMARK  138  A    between atoms: _327  and  _328
REMARK  139  A    between atoms: _327  and  _330
REMARK  140  A    between atoms: _330  and  _331
REMARK  141  A    between atoms: _336  and  _337
REMARK  142  A    between atoms: _339  and  _341
REMARK  143  A    between atoms: _341  and  _342
REMARK  144  A    between atoms: _341  and  _344
REMARK  145  A    between atoms: _344  and  _345
REMARK  146  A    between atoms: _350  and  _351
REMARK  147  A    between atoms: _353  and  _355
REMARK  148  A    between atoms: _355  and  _356
REMARK  149  A    between atoms: _355  and  _358
REMARK  150  A    between atoms: _361  and  _363
REMARK  151  A    between atoms: _363  and  _364
REMARK  152  A    between atoms: _367  and  _369
REMARK  153  A    between atoms: _369  and  _370
REMARK  154  A    between atoms: _372  and  _374
REMARK  155  A    between atoms: _374  and  _375
REMARK  156  A    between atoms: _374  and  _377
REMARK  157  A    between atoms: _377  and  _378
REMARK  158  A    between atoms: _381  and  _383
REMARK  159  A    between atoms: _383  and  _384
REMARK  160  A    between atoms: _383  and  _386
REMARK  161  A    between atoms: _389  and  _391
REMARK  162  A    between atoms: _391  and  _392
REMARK  163  A    between atoms: _394  and  _396
REMARK  164  A    between atoms: _396  and  _397
REMARK  165  A    between atoms: _399  and  _401
REMARK  166  A    between atoms: _401  and  _402
REMARK  167  A    between atoms: _401  and  _404
REMARK  168  A    between atoms: _404  and  _405
REMARK  169  A    between atoms: _408  and  _410
REMARK  170  A    between atoms: _410  and  _411
REMARK  171  A    between atoms: _410  and  _413
REMARK  172  A    between atoms: _413  and  _414
REMARK  173  A    between atoms: _417  and  _419
REMARK  174  A    between atoms: _419  and  _420
REMARK  175  A    between atoms: _419  and  _422
REMARK  176  A    between atoms: _422  and  _423
REMARK  177  A    between atoms: _429  and  _431
REMARK  178  A    between atoms: _431  and  _432
REMARK  179  A    between atoms: _431  and  _434
REMARK  180  A    between atoms: _434  and  _435
REMARK  181  A    between atoms: _435  and  _436
REMARK  182  A    between atoms: _438  and  _440
REMARK  183  A    between atoms: _440  and  _441
REMARK  184  A    between atoms: _440  and  _443
REMARK  185  A    between atoms: _443  and  _444
REMARK  186  A    between atoms: _450  and  _452
REMARK  187  A    between atoms: _452  and  _453
REMARK  188  A    between atoms: _452  and  _455
REMARK  189  A    between atoms: _455  and  _456
REMARK  190  A    between atoms: _459  and  _461
REMARK  191  A    between atoms: _461  and  _462
REMARK  192  A    between atoms: _461  and  _464
REMARK  193  A    between atoms: _464  and  _465
REMARK  194  A    between atoms: _465  and  _466
REMARK  195  A    between atoms: _471  and  _473
REMARK  196  A    between atoms: _473  and  _474
REMARK  197  A    between atoms: _473  and  _476
REMARK  198  A    between atoms: _476  and  _477
REMARK  199  A    between atoms: _477  and  _478
REMARK  200  A    between atoms: _478  and  _479
REMARK  201  A    between atoms: _479  and  _480
REMARK  202  A    between atoms: _484  and  _486
REMARK  203  A    between atoms: _486  and  _487
REMARK  204  A    between atoms: _486  and  _489
REMARK  205  A    between atoms: _489  and  _490
REMARK  206  A    between atoms: _493  and  _495
REMARK  207  A    between atoms: _495  and  _496
REMARK  208  A    between atoms: _495  and  _498
REMARK  209  A    between atoms: _498  and  _499
REMARK  210  A    between atoms: _504  and  _506
REMARK  211  A    between atoms: _506  and  _507
REMARK  212  A    between atoms: _506  and  _509
REMARK  213  A    between atoms: _509  and  _510
REMARK  214  A    between atoms: _513  and  _515
REMARK  215  A    between atoms: _515  and  _516
REMARK  216  A    between atoms: _515  and  _518
REMARK  217  A    between atoms: _518  and  _519
REMARK  218  A    between atoms: _519  and  _520
REMARK  219  A    between atoms: _520  and  _521
REMARK  220  A    between atoms: _530  and  _532
REMARK  221  A    between atoms: _532  and  _533
REMARK  222  A    between atoms: _532  and  _535
REMARK  223  A    between atoms: _535  and  _536
REMARK  224  A    between atoms: _539  and  _541
REMARK  225  A    between atoms: _541  and  _542
REMARK  226  A    between atoms: _541  and  _544
REMARK  227  A    between atoms: _544  and  _545
REMARK  228  A    between atoms: _545  and  _546
REMARK  229  A    between atoms: _549  and  _551
REMARK  230  A    between atoms: _551  and  _552
REMARK  231  A    between atoms: _551  and  _554
REMARK  232  A    between atoms: _554  and  _555
REMARK  233  A    between atoms: _561  and  _563
REMARK  234  A    between atoms: _563  and  _564
REMARK  235  A    between atoms: _563  and  _566
REMARK  236  A    between atoms: _566  and  _567
REMARK  237  A    between atoms: _571  and  _572
REMARK  238  A    between atoms: _577  and  _579
REMARK  239  A    between atoms: _579  and  _580
REMARK  240  A    between atoms: _579  and  _582
REMARK  241  A    between atoms: _582  and  _583
REMARK  242  A    between atoms: _583  and  _584
REMARK  243  A    between atoms: _589  and  _591
REMARK  244  A    between atoms: _591  and  _592
REMARK  245  A    between atoms: _591  and  _594
REMARK  246  A    between atoms: _597  and  _599
REMARK  247  A    between atoms: _599  and  _600
REMARK  248  A    between atoms: _599  and  _602
REMARK  249  A    between atoms: _602  and  _603
REMARK  250  A    between atoms: _603  and  _604
REMARK  251  A    between atoms: _606  and  _608
REMARK  252  A    between atoms: _608  and  _609
REMARK  253  A    between atoms: _612  and  _614
REMARK  254  A    between atoms: _614  and  _615
REMARK  255  A    between atoms: _614  and  _617
REMARK  256  A    between atoms: _617  and  _618
REMARK  257  A    between atoms: _621  and  _623
REMARK  258  A    between atoms: _623  and  _624
REMARK  259  A    between atoms: _627  and  _629
REMARK  260  A    between atoms: _629  and  _630
REMARK  261  A    between atoms: _629  and  _632
REMARK  262  A    between atoms: _632  and  _633
REMARK  263  A    between atoms: _636  and  _638
REMARK  264  A    between atoms: _638  and  _639
REMARK  265  A    between atoms: _638  and  _641
REMARK  266  A    between atoms: _641  and  _642
REMARK  267  A    between atoms: _645  and  _647
REMARK  268  A    between atoms: _647  and  _648
REMARK  269  A    between atoms: _647  and  _650
REMARK  270  A    between atoms: _650  and  _651
REMARK  271  A    between atoms: _654  and  _656
REMARK  272  A    between atoms: _656  and  _657
REMARK  273  A    between atoms: _656  and  _659
REMARK  274  A    between atoms: _659  and  _660
REMARK  275  A    between atoms: _660  and  _661
REMARK  276  A    between atoms: _666  and  _668
REMARK  277  A    between atoms: _668  and  _669
REMARK  278  A    between atoms: _672  and  _674
REMARK  279  A    between atoms: _674  and  _675
REMARK  280  A    between atoms: _674  and  _677
REMARK  281  A    between atoms: _680  and  _682
REMARK  282  A    between atoms: _682  and  _683
REMARK  283  A    between atoms: _682  and  _685
REMARK  284  A    between atoms: _685  and  _686
REMARK  285  A    between atoms: _689  and  _691
REMARK  286  A    between atoms: _691  and  _692
REMARK  287  A    between atoms: _691  and  _694
REMARK  288  A    between atoms: _694  and  _695
REMARK  289  A    between atoms: _695  and  _696
REMARK                            x       y       z     vdW  Elec       q    Type
REMARK                         _______ _______ _______ _____ _____    ______ ____
ROOT
ATOM      1  O   HOH     1      25.019  55.100  48.355  0.00  0.00    +0.000 OA
ENDROOT
TORSDOF 0
REMARK  Name = ../refined-set-2016/3vjc/3vjc_pocket.pdb
REMARK  289 active torsions:
REMARK  status: ('A' for Active; 'I' for Inactive)
REMARK    1  A    between atoms: _1  and  _3
REMARK    2  A    between atoms: _3  and  _4
REMARK    3  A    between atoms: _3  and  _6
REMARK    4  A    between atoms: _6  and  _7
REMARK    5  A    between atoms: _10  and  _12
REMARK    6  A    between atoms: _12  and  _13
REMARK    7  A    between atoms: _12  and  _15
REMARK    8  A    between atoms: _15  and  _16
REMARK    9  A    between atoms: _21  and  _23
REMARK   10  A    between atoms: _23  and  _24
REMARK   11  A    between atoms: _23  and  _26
REMARK   12  A    between atoms: _26  and  _27
REMARK   13  A    between atoms: _27  and  _28
REMARK   14  A    between atoms: _33  and  _35
REMARK   15  A    between atoms: _35  and  _36
REMARK   16  A    between atoms: _35  and  _38
REMARK   17  A    between atoms: _38  and  _39
REMARK   18  A    between atoms: _42  and  _44
REMARK   19  A    between atoms: _44  and  _45
REMARK   20  A    between atoms: _44  and  _47
REMARK   21  A    between atoms: _47  and  _48
REMARK   22  A    between atoms: _50  and  _52
REMARK   23  A    between atoms: _52  and  _53
REMARK   24  A    between atoms: _52  and  _55
REMARK   25  A    between atoms: _55  and  _56
REMARK   26  A    between atoms: _56  and  _57
REMARK   27  A    between atoms: _57  and  _58
REMARK   28  A    between atoms: _67  and  _69
REMARK   29  A    between atoms: _69  and  _70
REMARK   30  A    between atoms: _69  and  _72
REMARK   31  A    between atoms: _72  and  _73
REMARK   32  A    between atoms: _75  and  _77
REMARK   33  A    between atoms: _77  and  _78
REMARK   34  A    between atoms: _77  and  _80
REMARK   35  A    between atoms: _80  and  _81
REMARK   36  A    between atoms: _87  and  _89
REMARK   37  A    between atoms: _89  and  _90
REMARK   38  A    between atoms: _93  and  _95
REMARK   39  A    between atoms: _95  and  _96
REMARK   40  A    between atoms: _99  and  _101
REMARK   41  A    between atoms: _101  and  _102
REMARK   42  A    between atoms: _101  and  _104
REMARK   43  A    between atoms: _107  and  _109
REMARK   44  A    between atoms: _109  and  _110
REMARK   45  A    between atoms: _109  and  _112
REMARK   46  A    between atoms: _112  and  _113
REMARK   47  A    between atoms: _116  and  _118
REMARK   48  A    between atoms: _118  and  _119
REMARK   49  A    between atoms: _118  and  _121
REMARK   50  A    between atoms: _121  and  _122
REMARK   51  A    between atoms: _125  and  _127
REMARK   52  A    between atoms: _127  and  _128
REMARK   53  A    between atoms: _131  and  _133
REMARK   54  A    between atoms: _133  and  _134
REMARK   55  A    between atoms: _133  and  _136
REMARK   56  A    between atoms: _139  and  _141
REMARK   57  A    between atoms: _141  and  _142
REMARK   58  A    between atoms: _141  and  _144
REMARK   59  A    between atoms: _146  and  _148
REMARK   60  A    between atoms: _148  and  _149
REMARK   61  A    between atoms: _148  and  _151
REMARK   62  A    between atoms: _151  and  _152
REMARK   63  A    between atoms: _155  and  _157
REMARK   64  A    between atoms: _157  and  _158
REMARK   65  A    between atoms: _157  and  _160
REMARK   66  A    between atoms: _160  and  _161
REMARK   67  A    between atoms: _167  and  _169
REMARK   68  A    between atoms: _169  and  _170
REMARK   69  A    between atoms: _169  and  _172
REMARK   70  A    between atoms: _172  and  _173
REMARK   71  A    between atoms: _178  and  _179
REMARK   72  A    between atoms: _181  and  _183
REMARK   73  A    between atoms: _183  and  _184
REMARK   74  A    between atoms: _183  and  _186
REMARK   75  A    between atoms: _186  and  _187
REMARK   76  A    between atoms: _190  and  _192
REMARK   77  A    between atoms: _192  and  _193
REMARK   78  A    between atoms: _192  and  _195
REMARK   79  A    between atoms: _198  and  _200
REMARK   80  A    between atoms: _200  and  _201
REMARK   81  A    between atoms: _200  and  _203
REMARK   82  A    between atoms: _203  and  _204
REMARK   83  A    between atoms: _207  and  _209
REMARK   84  A    between atoms: _209  and  _210
REMARK   85  A    between atoms: _209  and  _212
REMARK   86  A    between atoms: _212  and  _213
REMARK   87  A    between atoms: _213  and  _214
REMARK   88  A    between atoms: _214  and  _215
REMARK   89  A    between atoms: _224  and  _226
REMARK   90  A    between atoms: _226  and  _227
REMARK   91  A    between atoms: _230  and  _232
REMARK   92  A    between atoms: _232  and  _233
REMARK   93  A    between atoms: _232  and  _235
REMARK   94  A    between atoms: _235  and  _236
REMARK   95  A    between atoms: _239  and  _241
REMARK   96  A    between atoms: _241  and  _242
REMARK   97  A    between atoms: _241  and  _244
REMARK   98  A    between atoms: _244  and  _245
REMARK   99  A    between atoms: _248  and  _250
REMARK  100  A    between atoms: _250  and  _251
REMARK  101  A    between atoms: _250  and  _253
REMARK  102  A    between atoms: _253  and  _254
REMARK  103  A    between atoms: _257  and  _259
REMARK  104  A    between atoms: _259  and  _260
REMARK  105  A    between atoms: _259  and  _262
REMARK  106  A    between atoms: _262  and  _263
REMARK  107  A    between atoms: _263  and  _264
REMARK  108  A    between atoms: _267  and  _269
REMARK  109  A    between atoms: _269  and  _270
REMARK  110  A    between atoms: _269  and  _272
REMARK  111  A    between atoms: _272  and  _273
REMARK  112  A    between atoms: _276  and  _278
REMARK  113  A    between atoms: _278  and  _279
REMARK  114  A    between atoms: _278  and  _281
REMARK  115  A    between atoms: _281  and  _282
REMARK  116  A    between atoms: _282  and  _283
REMARK  117  A    between atoms: _283  and  _284
REMARK  118  A    between atoms: _284  and  _285
REMARK  119  A    between atoms: _289  and  _291
REMARK  120  A    between atoms: _291  and  _292
REMARK  121  A    between atoms: _291  and  _294
REMARK  122  A    between atoms: _294  and  _295
REMARK  123  A    between atoms: _298  and  _300
REMARK  124  A    between atoms: _300  and  _301
REMARK  125  A    between atoms: _300  and  _303
REMARK  126  A    between atoms: _303  and  _304
REMARK  127  A    between atoms: _307  and  _309
REMARK  128  A    between atoms: _309  and  _310
REMARK  129  A    between atoms: _309  and  _312
REMARK  130  A    between atoms: _312  and  _313
REMARK  131  A    between atoms: _313  and  _314
REMARK  132  A    between atoms: _316  and  _318
REMARK  133  A    between atoms: _318  and  _319
REMARK  134  A    between atoms: _318  and  _321
REMARK  135  A    between atoms: _321  and  _322
REMARK  136  A    between atoms: _322  and  _323
REMARK  137  A    between atoms: _325  and  _327
REMARK  138  A    between atoms: _327  and  _328
REMARK  139  A    between atoms: _327  and  _330
REMARK  140  A    between atoms: _330  and  _331
REMARK  141  A    between atoms: _336  and  _337
REMARK  142  A    between atoms: _339  and  _341
REMARK  143  A    between atoms: _341  and  _342
REMARK  144  A    between atoms: _341  and  _344
REMARK  145  A    between atoms: _344  and  _345
REMARK  146  A    between atoms: _350  and  _351
REMARK  147  A    between atoms: _353  and  _355
REMARK  148  A    between atoms: _355  and  _356
REMARK  149  A    between atoms: _355  and  _358
REMARK  150  A    between atoms: _361  and  _363
REMARK  151  A    between atoms: _363  and  _364
REMARK  152  A    between atoms: _367  and  _369
REMARK  153  A    between atoms: _369  and  _370
REMARK  154  A    between atoms: _372  and  _374
REMARK  155  A    between atoms: _374  and  _375
REMARK  156  A    between atoms: _374  and  _377
REMARK  157  A    between atoms: _377  and  _378
REMARK  158  A    between atoms: _381  and  _383
REMARK  159  A    between atoms: _383  and  _384
REMARK  160  A    between atoms: _383  and  _386
REMARK  161  A    between atoms: _389  and  _391
REMARK  162  A    between atoms: _391  and  _392
REMARK  163  A    between atoms: _394  and  _396
REMARK  164  A    between atoms: _396  and  _397
REMARK  165  A    between atoms: _399  and  _401
REMARK  166  A    between atoms: _401  and  _402
REMARK  167  A    between atoms: _401  and  _404
REMARK  168  A    between atoms: _404  and  _405
REMARK  169  A    between atoms: _408  and  _410
REMARK  170  A    between atoms: _410  and  _411
REMARK  171  A    between atoms: _410  and  _413
REMARK  172  A    between atoms: _413  and  _414
REMARK  173  A    between atoms: _417  and  _419
REMARK  174  A    between atoms: _419  and  _420
REMARK  175  A    between atoms: _419  and  _422
REMARK  176  A    between atoms: _422  and  _423
REMARK  177  A    between atoms: _429  and  _431
REMARK  178  A    between atoms: _431  and  _432
REMARK  179  A    between atoms: _431  and  _434
REMARK  180  A    between atoms: _434  and  _435
REMARK  181  A    between atoms: _435  and  _436
REMARK  182  A    between atoms: _438  and  _440
REMARK  183  A    between atoms: _440  and  _441
REMARK  184  A    between atoms: _440  and  _443
REMARK  185  A    between atoms: _443  and  _444
REMARK  186  A    between atoms: _450  and  _452
REMARK  187  A    between atoms: _452  and  _453
REMARK  188  A    between atoms: _452  and  _455
REMARK  189  A    between atoms: _455  and  _456
REMARK  190  A    between atoms: _459  and  _461
REMARK  191  A    between atoms: _461  and  _462
REMARK  192  A    between atoms: _461  and  _464
REMARK  193  A    between atoms: _464  and  _465
REMARK  194  A    between atoms: _465  and  _466
REMARK  195  A    between atoms: _471  and  _473
REMARK  196  A    between atoms: _473  and  _474
REMARK  197  A    between atoms: _473  and  _476
REMARK  198  A    between atoms: _476  and  _477
REMARK  199  A    between atoms: _477  and  _478
REMARK  200  A    between atoms: _478  and  _479
REMARK  201  A    between atoms: _479  and  _480
REMARK  202  A    between atoms: _484  and  _486
REMARK  203  A    between atoms: _486  and  _487
REMARK  204  A    between atoms: _486  and  _489
REMARK  205  A    between atoms: _489  and  _490
REMARK  206  A    between atoms: _493  and  _495
REMARK  207  A    between atoms: _495  and  _496
REMARK  208  A    between atoms: _495  and  _498
REMARK  209  A    between atoms: _498  and  _499
REMARK  210  A    between atoms: _504  and  _506
REMARK  211  A    between atoms: _506  and  _507
REMARK  212  A    between atoms: _506  and  _509
REMARK  213  A    between atoms: _509  and  _510
REMARK  214  A    between atoms: _513  and  _515
REMARK  215  A    between atoms: _515  and  _516
REMARK  216  A    between atoms: _515  and  _518
REMARK  217  A    between atoms: _518  and  _519
REMARK  218  A    between atoms: _519  and  _520
REMARK  219  A    between atoms: _520  and  _521
REMARK  220  A    between atoms: _530  and  _532
REMARK  221  A    between atoms: _532  and  _533
REMARK  222  A    between atoms: _532  and  _535
REMARK  223  A    between atoms: _535  and  _536
REMARK  224  A    between atoms: _539  and  _541
REMARK  225  A    between atoms: _541  and  _542
REMARK  226  A    between atoms: _541  and  _544
REMARK  227  A    between atoms: _544  and  _545
REMARK  228  A    between atoms: _545  and  _546
REMARK  229  A    between atoms: _549  and  _551
REMARK  230  A    between atoms: _551  and  _552
REMARK  231  A    between atoms: _551  and  _554
REMARK  232  A    between atoms: _554  and  _555
REMARK  233  A    between atoms: _561  and  _563
REMARK  234  A    between atoms: _563  and  _564
REMARK  235  A    between atoms: _563  and  _566
REMARK  236  A    between atoms: _566  and  _567
REMARK  237  A    between atoms: _571  and  _572
REMARK  238  A    between atoms: _577  and  _579
REMARK  239  A    between atoms: _579  and  _580
REMARK  240  A    between atoms: _579  and  _582
REMARK  241  A    between atoms: _582  and  _583
REMARK  242  A    between atoms: _583  and  _584
REMARK  243  A    between atoms: _589  and  _591
REMARK  244  A    between atoms: _591  and  _592
REMARK  245  A    between atoms: _591  and  _594
REMARK  246  A    between atoms: _597  and  _599
REMARK  247  A    between atoms: _599  and  _600
REMARK  248  A    between atoms: _599  and  _602
REMARK  249  A    between atoms: _602  and  _603
REMARK  250  A    between atoms: _603  and  _604
REMARK  251  A    between atoms: _606  and  _608
REMARK  252  A    between atoms: _608  and  _609
REMARK  253  A    between atoms: _612  and  _614
REMARK  254  A    between atoms: _614  and  _615
REMARK  255  A    between atoms: _614  and  _617
REMARK  256  A    between atoms: _617  and  _618
REMARK  257  A    between atoms: _621  and  _623
REMARK  258  A    between atoms: _623  and  _624
REMARK  259  A    between atoms: _627  and  _629
REMARK  260  A    between atoms: _629  and  _630
REMARK  261  A    between atoms: _629  and  _632
REMARK  262  A    between atoms: _632  and  _633
REMARK  263  A    between atoms: _636  and  _638
REMARK  264  A    between atoms: _638  and  _639
REMARK  265  A    between atoms: _638  and  _641
REMARK  266  A    between atoms: _641  and  _642
REMARK  267  A    between atoms: _645  and  _647
REMARK  268  A    between atoms: _647  and  _648
REMARK  269  A    between atoms: _647  and  _650
REMARK  270  A    between atoms: _650  and  _651
REMARK  271  A    between atoms: _654  and  _656
REMARK  272  A    between atoms: _656  and  _657
REMARK  273  A    between atoms: _656  and  _659
REMARK  274  A    between atoms: _659  and  _660
REMARK  275  A    between atoms: _660  and  _661
REMARK  276  A    between atoms: _666  and  _668
REMARK  277  A    between atoms: _668  and  _669
REMARK  278  A    between atoms: _672  and  _674
REMARK  279  A    between atoms: _674  and  _675
REMARK  280  A    between atoms: _674  and  _677
REMARK  281  A    between atoms: _680  and  _682
REMARK  282  A    between atoms: _682  and  _683
REMARK  283  A    between atoms: _682  and  _685
REMARK  284  A    between atoms: _685  and  _686
REMARK  285  A    between atoms: _689  and  _691
REMARK  286  A    between atoms: _691  and  _692
REMARK  287  A    between atoms: _691  and  _694
REMARK  288  A    between atoms: _694  and  _695
REMARK  289  A    between atoms: _695  and  _696
REMARK                            x       y       z     vdW  Elec       q    Type
REMARK                         _______ _______ _______ _____ _____    ______ ____
ROOT
ATOM      1  O   HOH     1      12.831  63.680  53.680  0.00  0.00    +0.000 OA
ENDROOT
TORSDOF 0
REMARK  Name = ../refined-set-2016/3vjc/3vjc_pocket.pdb
REMARK  289 active torsions:
REMARK  status: ('A' for Active; 'I' for Inactive)
REMARK    1  A    between atoms: _1  and  _3
REMARK    2  A    between atoms: _3  and  _4
REMARK    3  A    between atoms: _3  and  _6
REMARK    4  A    between atoms: _6  and  _7
REMARK    5  A    between atoms: _10  and  _12
REMARK    6  A    between atoms: _12  and  _13
REMARK    7  A    between atoms: _12  and  _15
REMARK    8  A    between atoms: _15  and  _16
REMARK    9  A    between atoms: _21  and  _23
REMARK   10  A    between atoms: _23  and  _24
REMARK   11  A    between atoms: _23  and  _26
REMARK   12  A    between atoms: _26  and  _27
REMARK   13  A    between atoms: _27  and  _28
REMARK   14  A    between atoms: _33  and  _35
REMARK   15  A    between atoms: _35  and  _36
REMARK   16  A    between atoms: _35  and  _38
REMARK   17  A    between atoms: _38  and  _39
REMARK   18  A    between atoms: _42  and  _44
REMARK   19  A    between atoms: _44  and  _45
REMARK   20  A    between atoms: _44  and  _47
REMARK   21  A    between atoms: _47  and  _48
REMARK   22  A    between atoms: _50  and  _52
REMARK   23  A    between atoms: _52  and  _53
REMARK   24  A    between atoms: _52  and  _55
REMARK   25  A    between atoms: _55  and  _56
REMARK   26  A    between atoms: _56  and  _57
REMARK   27  A    between atoms: _57  and  _58
REMARK   28  A    between atoms: _67  and  _69
REMARK   29  A    between atoms: _69  and  _70
REMARK   30  A    between atoms: _69  and  _72
REMARK   31  A    between atoms: _72  and  _73
REMARK   32  A    between atoms: _75  and  _77
REMARK   33  A    between atoms: _77  and  _78
REMARK   34  A    between atoms: _77  and  _80
REMARK   35  A    between atoms: _80  and  _81
REMARK   36  A    between atoms: _87  and  _89
REMARK   37  A    between atoms: _89  and  _90
REMARK   38  A    between atoms: _93  and  _95
REMARK   39  A    between atoms: _95  and  _96
REMARK   40  A    between atoms: _99  and  _101
REMARK   41  A    between atoms: _101  and  _102
REMARK   42  A    between atoms: _101  and  _104
REMARK   43  A    between atoms: _107  and  _109
REMARK   44  A    between atoms: _109  and  _110
REMARK   45  A    between atoms: _109  and  _112
REMARK   46  A    between atoms: _112  and  _113
REMARK   47  A    between atoms: _116  and  _118
REMARK   48  A    between atoms: _118  and  _119
REMARK   49  A    between atoms: _118  and  _121
REMARK   50  A    between atoms: _121  and  _122
REMARK   51  A    between atoms: _125  and  _127
REMARK   52  A    between atoms: _127  and  _128
REMARK   53  A    between atoms: _131  and  _133
REMARK   54  A    between atoms: _133  and  _134
REMARK   55  A    between atoms: _133  and  _136
REMARK   56  A    between atoms: _139  and  _141
REMARK   57  A    between atoms: _141  and  _142
REMARK   58  A    between atoms: _141  and  _144
REMARK   59  A    between atoms: _146  and  _148
REMARK   60  A    between atoms: _148  and  _149
REMARK   61  A    between atoms: _148  and  _151
REMARK   62  A    between atoms: _151  and  _152
REMARK   63  A    between atoms: _155  and  _157
REMARK   64  A    between atoms: _157  and  _158
REMARK   65  A    between atoms: _157  and  _160
REMARK   66  A    between atoms: _160  and  _161
REMARK   67  A    between atoms: _167  and  _169
REMARK   68  A    between atoms: _169  and  _170
REMARK   69  A    between atoms: _169  and  _172
REMARK   70  A    between atoms: _172  and  _173
REMARK   71  A    between atoms: _178  and  _179
REMARK   72  A    between atoms: _181  and  _183
REMARK   73  A    between atoms: _183  and  _184
REMARK   74  A    between atoms: _183  and  _186
REMARK   75  A    between atoms: _186  and  _187
REMARK   76  A    between atoms: _190  and  _192
REMARK   77  A    between atoms: _192  and  _193
REMARK   78  A    between atoms: _192  and  _195
REMARK   79  A    between atoms: _198  and  _200
REMARK   80  A    between atoms: _200  and  _201
REMARK   81  A    between atoms: _200  and  _203
REMARK   82  A    between atoms: _203  and  _204
REMARK   83  A    between atoms: _207  and  _209
REMARK   84  A    between atoms: _209  and  _210
REMARK   85  A    between atoms: _209  and  _212
REMARK   86  A    between atoms: _212  and  _213
REMARK   87  A    between atoms: _213  and  _214
REMARK   88  A    between atoms: _214  and  _215
REMARK   89  A    between atoms: _224  and  _226
REMARK   90  A    between atoms: _226  and  _227
REMARK   91  A    between atoms: _230  and  _232
REMARK   92  A    between atoms: _232  and  _233
REMARK   93  A    between atoms: _232  and  _235
REMARK   94  A    between atoms: _235  and  _236
REMARK   95  A    between atoms: _239  and  _241
REMARK   96  A    between atoms: _241  and  _242
REMARK   97  A    between atoms: _241  and  _244
REMARK   98  A    between atoms: _244  and  _245
REMARK   99  A    between atoms: _248  and  _250
REMARK  100  A    between atoms: _250  and  _251
REMARK  101  A    between atoms: _250  and  _253
REMARK  102  A    between atoms: _253  and  _254
REMARK  103  A    between atoms: _257  and  _259
REMARK  104  A    between atoms: _259  and  _260
REMARK  105  A    between atoms: _259  and  _262
REMARK  106  A    between atoms: _262  and  _263
REMARK  107  A    between atoms: _263  and  _264
REMARK  108  A    between atoms: _267  and  _269
REMARK  109  A    between atoms: _269  and  _270
REMARK  110  A    between atoms: _269  and  _272
REMARK  111  A    between atoms: _272  and  _273
REMARK  112  A    between atoms: _276  and  _278
REMARK  113  A    between atoms: _278  and  _279
REMARK  114  A    between atoms: _278  and  _281
REMARK  115  A    between atoms: _281  and  _282
REMARK  116  A    between atoms: _282  and  _283
REMARK  117  A    between atoms: _283  and  _284
REMARK  118  A    between atoms: _284  and  _285
REMARK  119  A    between atoms: _289  and  _291
REMARK  120  A    between atoms: _291  and  _292
REMARK  121  A    between atoms: _291  and  _294
REMARK  122  A    between atoms: _294  and  _295
REMARK  123  A    between atoms: _298  and  _300
REMARK  124  A    between atoms: _300  and  _301
REMARK  125  A    between atoms: _300  and  _303
REMARK  126  A    between atoms: _303  and  _304
REMARK  127  A    between atoms: _307  and  _309
REMARK  128  A    between atoms: _309  and  _310
REMARK  129  A    between atoms: _309  and  _312
REMARK  130  A    between atoms: _312  and  _313
REMARK  131  A    between atoms: _313  and  _314
REMARK  132  A    between atoms: _316  and  _318
REMARK  133  A    between atoms: _318  and  _319
REMARK  134  A    between atoms: _318  and  _321
REMARK  135  A    between atoms: _321  and  _322
REMARK  136  A    between atoms: _322  and  _323
REMARK  137  A    between atoms: _325  and  _327
REMARK  138  A    between atoms: _327  and  _328
REMARK  139  A    between atoms: _327  and  _330
REMARK  140  A    between atoms: _330  and  _331
REMARK  141  A    between atoms: _336  and  _337
REMARK  142  A    between atoms: _339  and  _341
REMARK  143  A    between atoms: _341  and  _342
REMARK  144  A    between atoms: _341  and  _344
REMARK  145  A    between atoms: _344  and  _345
REMARK  146  A    between atoms: _350  and  _351
REMARK  147  A    between atoms: _353  and  _355
REMARK  148  A    between atoms: _355  and  _356
REMARK  149  A    between atoms: _355  and  _358
REMARK  150  A    between atoms: _361  and  _363
REMARK  151  A    between atoms: _363  and  _364
REMARK  152  A    between atoms: _367  and  _369
REMARK  153  A    between atoms: _369  and  _370
REMARK  154  A    between atoms: _372  and  _374
REMARK  155  A    between atoms: _374  and  _375
REMARK  156  A    between atoms: _374  and  _377
REMARK  157  A    between atoms: _377  and  _378
REMARK  158  A    between atoms: _381  and  _383
REMARK  159  A    between atoms: _383  and  _384
REMARK  160  A    between atoms: _383  and  _386
REMARK  161  A    between atoms: _389  and  _391
REMARK  162  A    between atoms: _391  and  _392
REMARK  163  A    between atoms: _394  and  _396
REMARK  164  A    between atoms: _396  and  _397
REMARK  165  A    between atoms: _399  and  _401
REMARK  166  A    between atoms: _401  and  _402
REMARK  167  A    between atoms: _401  and  _404
REMARK  168  A    between atoms: _404  and  _405
REMARK  169  A    between atoms: _408  and  _410
REMARK  170  A    between atoms: _410  and  _411
REMARK  171  A    between atoms: _410  and  _413
REMARK  172  A    between atoms: _413  and  _414
REMARK  173  A    between atoms: _417  and  _419
REMARK  174  A    between atoms: _419  and  _420
REMARK  175  A    between atoms: _419  and  _422
REMARK  176  A    between atoms: _422  and  _423
REMARK  177  A    between atoms: _429  and  _431
REMARK  178  A    between atoms: _431  and  _432
REMARK  179  A    between atoms: _431  and  _434
REMARK  180  A    between atoms: _434  and  _435
REMARK  181  A    between atoms: _435  and  _436
REMARK  182  A    between atoms: _438  and  _440
REMARK  183  A    between atoms: _440  and  _441
REMARK  184  A    between atoms: _440  and  _443
REMARK  185  A    between atoms: _443  and  _444
REMARK  186  A    between atoms: _450  and  _452
REMARK  187  A    between atoms: _452  and  _453
REMARK  188  A    between atoms: _452  and  _455
REMARK  189  A    between atoms: _455  and  _456
REMARK  190  A    between atoms: _459  and  _461
REMARK  191  A    between atoms: _461  and  _462
REMARK  192  A    between atoms: _461  and  _464
REMARK  193  A    between atoms: _464  and  _465
REMARK  194  A    between atoms: _465  and  _466
REMARK  195  A    between atoms: _471  and  _473
REMARK  196  A    between atoms: _473  and  _474
REMARK  197  A    between atoms: _473  and  _476
REMARK  198  A    between atoms: _476  and  _477
REMARK  199  A    between atoms: _477  and  _478
REMARK  200  A    between atoms: _478  and  _479
REMARK  201  A    between atoms: _479  and  _480
REMARK  202  A    between atoms: _484  and  _486
REMARK  203  A    between atoms: _486  and  _487
REMARK  204  A    between atoms: _486  and  _489
REMARK  205  A    between atoms: _489  and  _490
REMARK  206  A    between atoms: _493  and  _495
REMARK  207  A    between atoms: _495  and  _496
REMARK  208  A    between atoms: _495  and  _498
REMARK  209  A    between atoms: _498  and  _499
REMARK  210  A    between atoms: _504  and  _506
REMARK  211  A    between atoms: _506  and  _507
REMARK  212  A    between atoms: _506  and  _509
REMARK  213  A    between atoms: _509  and  _510
REMARK  214  A    between atoms: _513  and  _515
REMARK  215  A    between atoms: _515  and  _516
REMARK  216  A    between atoms: _515  and  _518
REMARK  217  A    between atoms: _518  and  _519
REMARK  218  A    between atoms: _519  and  _520
REMARK  219  A    between atoms: _520  and  _521
REMARK  220  A    between atoms: _530  and  _532
REMARK  221  A    between atoms: _532  and  _533
REMARK  222  A    between atoms: _532  and  _535
REMARK  223  A    between atoms: _535  and  _536
REMARK  224  A    between atoms: _539  and  _541
REMARK  225  A    between atoms: _541  and  _542
REMARK  226  A    between atoms: _541  and  _544
REMARK  227  A    between atoms: _544  and  _545
REMARK  228  A    between atoms: _545  and  _546
REMARK  229  A    between atoms: _549  and  _551
REMARK  230  A    between atoms: _551  and  _552
REMARK  231  A    between atoms: _551  and  _554
REMARK  232  A    between atoms: _554  and  _555
REMARK  233  A    between atoms: _561  and  _563
REMARK  234  A    between atoms: _563  and  _564
REMARK  235  A    between atoms: _563  and  _566
REMARK  236  A    between atoms: _566  and  _567
REMARK  237  A    between atoms: _571  and  _572
REMARK  238  A    between atoms: _577  and  _579
REMARK  239  A    between atoms: _579  and  _580
REMARK  240  A    between atoms: _579  and  _582
REMARK  241  A    between atoms: _582  and  _583
REMARK  242  A    between atoms: _583  and  _584
REMARK  243  A    between atoms: _589  and  _591
REMARK  244  A    between atoms: _591  and  _592
REMARK  245  A    between atoms: _591  and  _594
REMARK  246  A    between atoms: _597  and  _599
REMARK  247  A    between atoms: _599  and  _600
REMARK  248  A    between atoms: _599  and  _602
REMARK  249  A    between atoms: _602  and  _603
REMARK  250  A    between atoms: _603  and  _604
REMARK  251  A    between atoms: _606  and  _608
REMARK  252  A    between atoms: _608  and  _609
REMARK  253  A    between atoms: _612  and  _614
REMARK  254  A    between atoms: _614  and  _615
REMARK  255  A    between atoms: _614  and  _617
REMARK  256  A    between atoms: _617  and  _618
REMARK  257  A    between atoms: _621  and  _623
REMARK  258  A    between atoms: _623  and  _624
REMARK  259  A    between atoms: _627  and  _629
REMARK  260  A    between atoms: _629  and  _630
REMARK  261  A    between atoms: _629  and  _632
REMARK  262  A    between atoms: _632  and  _633
REMARK  263  A    between atoms: _636  and  _638
REMARK  264  A    between atoms: _638  and  _639
REMARK  265  A    between atoms: _638  and  _641
REMARK  266  A    between atoms: _641  and  _642
REMARK  267  A    between atoms: _645  and  _647
REMARK  268  A    between atoms: _647  and  _648
REMARK  269  A    between atoms: _647  and  _650
REMARK  270  A    between atoms: _650  and  _651
REMARK  271  A    between atoms: _654  and  _656
REMARK  272  A    between atoms: _656  and  _657
REMARK  273  A    between atoms: _656  and  _659
REMARK  274  A    between atoms: _659  and  _660
REMARK  275  A    between atoms: _660  and  _661
REMARK  276  A    between atoms: _666  and  _668
REMARK  277  A    between atoms: _668  and  _669
REMARK  278  A    between atoms: _672  and  _674
REMARK  279  A    between atoms: _674  and  _675
REMARK  280  A    between atoms: _674  and  _677
REMARK  281  A    between atoms: _680  and  _682
REMARK  282  A    between atoms: _682  and  _683
REMARK  283  A    between atoms: _682  and  _685
REMARK  284  A    between atoms: _685  and  _686
REMARK  285  A    between atoms: _689  and  _691
REMARK  286  A    between atoms: _691  and  _692
REMARK  287  A    between atoms: _691  and  _694
REMARK  288  A    between atoms: _694  and  _695
REMARK  289  A    between atoms: _695  and  _696
REMARK                            x       y       z     vdW  Elec       q    Type
REMARK                         _______ _______ _______ _____ _____    ______ ____
ROOT
ATOM      1  O   HOH     1      18.344  69.324  58.572  0.00  0.00    +0.000 OA
ENDROOT
TORSDOF 0
REMARK  Name = ../refined-set-2016/3vjc/3vjc_pocket.pdb
REMARK  289 active torsions:
REMARK  status: ('A' for Active; 'I' for Inactive)
REMARK    1  A    between atoms: _1  and  _3
REMARK    2  A    between atoms: _3  and  _4
REMARK    3  A    between atoms: _3  and  _6
REMARK    4  A    between atoms: _6  and  _7
REMARK    5  A    between atoms: _10  and  _12
REMARK    6  A    between atoms: _12  and  _13
REMARK    7  A    between atoms: _12  and  _15
REMARK    8  A    between atoms: _15  and  _16
REMARK    9  A    between atoms: _21  and  _23
REMARK   10  A    between atoms: _23  and  _24
REMARK   11  A    between atoms: _23  and  _26
REMARK   12  A    between atoms: _26  and  _27
REMARK   13  A    between atoms: _27  and  _28
REMARK   14  A    between atoms: _33  and  _35
REMARK   15  A    between atoms: _35  and  _36
REMARK   16  A    between atoms: _35  and  _38
REMARK   17  A    between atoms: _38  and  _39
REMARK   18  A    between atoms: _42  and  _44
REMARK   19  A    between atoms: _44  and  _45
REMARK   20  A    between atoms: _44  and  _47
REMARK   21  A    between atoms: _47  and  _48
REMARK   22  A    between atoms: _50  and  _52
REMARK   23  A    between atoms: _52  and  _53
REMARK   24  A    between atoms: _52  and  _55
REMARK   25  A    between atoms: _55  and  _56
REMARK   26  A    between atoms: _56  and  _57
REMARK   27  A    between atoms: _57  and  _58
REMARK   28  A    between atoms: _67  and  _69
REMARK   29  A    between atoms: _69  and  _70
REMARK   30  A    between atoms: _69  and  _72
REMARK   31  A    between atoms: _72  and  _73
REMARK   32  A    between atoms: _75  and  _77
REMARK   33  A    between atoms: _77  and  _78
REMARK   34  A    between atoms: _77  and  _80
REMARK   35  A    between atoms: _80  and  _81
REMARK   36  A    between atoms: _87  and  _89
REMARK   37  A    between atoms: _89  and  _90
REMARK   38  A    between atoms: _93  and  _95
REMARK   39  A    between atoms: _95  and  _96
REMARK   40  A    between atoms: _99  and  _101
REMARK   41  A    between atoms: _101  and  _102
REMARK   42  A    between atoms: _101  and  _104
REMARK   43  A    between atoms: _107  and  _109
REMARK   44  A    between atoms: _109  and  _110
REMARK   45  A    between atoms: _109  and  _112
REMARK   46  A    between atoms: _112  and  _113
REMARK   47  A    between atoms: _116  and  _118
REMARK   48  A    between atoms: _118  and  _119
REMARK   49  A    between atoms: _118  and  _121
REMARK   50  A    between atoms: _121  and  _122
REMARK   51  A    between atoms: _125  and  _127
REMARK   52  A    between atoms: _127  and  _128
REMARK   53  A    between atoms: _131  and  _133
REMARK   54  A    between atoms: _133  and  _134
REMARK   55  A    between atoms: _133  and  _136
REMARK   56  A    between atoms: _139  and  _141
REMARK   57  A    between atoms: _141  and  _142
REMARK   58  A    between atoms: _141  and  _144
REMARK   59  A    between atoms: _146  and  _148
REMARK   60  A    between atoms: _148  and  _149
REMARK   61  A    between atoms: _148  and  _151
REMARK   62  A    between atoms: _151  and  _152
REMARK   63  A    between atoms: _155  and  _157
REMARK   64  A    between atoms: _157  and  _158
REMARK   65  A    between atoms: _157  and  _160
REMARK   66  A    between atoms: _160  and  _161
REMARK   67  A    between atoms: _167  and  _169
REMARK   68  A    between atoms: _169  and  _170
REMARK   69  A    between atoms: _169  and  _172
REMARK   70  A    between atoms: _172  and  _173
REMARK   71  A    between atoms: _178  and  _179
REMARK   72  A    between atoms: _181  and  _183
REMARK   73  A    between atoms: _183  and  _184
REMARK   74  A    between atoms: _183  and  _186
REMARK   75  A    between atoms: _186  and  _187
REMARK   76  A    between atoms: _190  and  _192
REMARK   77  A    between atoms: _192  and  _193
REMARK   78  A    between atoms: _192  and  _195
REMARK   79  A    between atoms: _198  and  _200
REMARK   80  A    between atoms: _200  and  _201
REMARK   81  A    between atoms: _200  and  _203
REMARK   82  A    between atoms: _203  and  _204
REMARK   83  A    between atoms: _207  and  _209
REMARK   84  A    between atoms: _209  and  _210
REMARK   85  A    between atoms: _209  and  _212
REMARK   86  A    between atoms: _212  and  _213
REMARK   87  A    between atoms: _213  and  _214
REMARK   88  A    between atoms: _214  and  _215
REMARK   89  A    between atoms: _224  and  _226
REMARK   90  A    between atoms: _226  and  _227
REMARK   91  A    between atoms: _230  and  _232
REMARK   92  A    between atoms: _232  and  _233
REMARK   93  A    between atoms: _232  and  _235
REMARK   94  A    between atoms: _235  and  _236
REMARK   95  A    between atoms: _239  and  _241
REMARK   96  A    between atoms: _241  and  _242
REMARK   97  A    between atoms: _241  and  _244
REMARK   98  A    between atoms: _244  and  _245
REMARK   99  A    between atoms: _248  and  _250
REMARK  100  A    between atoms: _250  and  _251
REMARK  101  A    between atoms: _250  and  _253
REMARK  102  A    between atoms: _253  and  _254
REMARK  103  A    between atoms: _257  and  _259
REMARK  104  A    between atoms: _259  and  _260
REMARK  105  A    between atoms: _259  and  _262
REMARK  106  A    between atoms: _262  and  _263
REMARK  107  A    between atoms: _263  and  _264
REMARK  108  A    between atoms: _267  and  _269
REMARK  109  A    between atoms: _269  and  _270
REMARK  110  A    between atoms: _269  and  _272
REMARK  111  A    between atoms: _272  and  _273
REMARK  112  A    between atoms: _276  and  _278
REMARK  113  A    between atoms: _278  and  _279
REMARK  114  A    between atoms: _278  and  _281
REMARK  115  A    between atoms: _281  and  _282
REMARK  116  A    between atoms: _282  and  _283
REMARK  117  A    between atoms: _283  and  _284
REMARK  118  A    between atoms: _284  and  _285
REMARK  119  A    between atoms: _289  and  _291
REMARK  120  A    between atoms: _291  and  _292
REMARK  121  A    between atoms: _291  and  _294
REMARK  122  A    between atoms: _294  and  _295
REMARK  123  A    between atoms: _298  and  _300
REMARK  124  A    between atoms: _300  and  _301
REMARK  125  A    between atoms: _300  and  _303
REMARK  126  A    between atoms: _303  and  _304
REMARK  127  A    between atoms: _307  and  _309
REMARK  128  A    between atoms: _309  and  _310
REMARK  129  A    between atoms: _309  and  _312
REMARK  130  A    between atoms: _312  and  _313
REMARK  131  A    between atoms: _313  and  _314
REMARK  132  A    between atoms: _316  and  _318
REMARK  133  A    between atoms: _318  and  _319
REMARK  134  A    between atoms: _318  and  _321
REMARK  135  A    between atoms: _321  and  _322
REMARK  136  A    between atoms: _322  and  _323
REMARK  137  A    between atoms: _325  and  _327
REMARK  138  A    between atoms: _327  and  _328
REMARK  139  A    between atoms: _327  and  _330
REMARK  140  A    between atoms: _330  and  _331
REMARK  141  A    between atoms: _336  and  _337
REMARK  142  A    between atoms: _339  and  _341
REMARK  143  A    between atoms: _341  and  _342
REMARK  144  A    between atoms: _341  and  _344
REMARK  145  A    between atoms: _344  and  _345
REMARK  146  A    between atoms: _350  and  _351
REMARK  147  A    between atoms: _353  and  _355
REMARK  148  A    between atoms: _355  and  _356
REMARK  149  A    between atoms: _355  and  _358
REMARK  150  A    between atoms: _361  and  _363
REMARK  151  A    between atoms: _363  and  _364
REMARK  152  A    between atoms: _367  and  _369
REMARK  153  A    between atoms: _369  and  _370
REMARK  154  A    between atoms: _372  and  _374
REMARK  155  A    between atoms: _374  and  _375
REMARK  156  A    between atoms: _374  and  _377
REMARK  157  A    between atoms: _377  and  _378
REMARK  158  A    between atoms: _381  and  _383
REMARK  159  A    between atoms: _383  and  _384
REMARK  160  A    between atoms: _383  and  _386
REMARK  161  A    between atoms: _389  and  _391
REMARK  162  A    between atoms: _391  and  _392
REMARK  163  A    between atoms: _394  and  _396
REMARK  164  A    between atoms: _396  and  _397
REMARK  165  A    between atoms: _399  and  _401
REMARK  166  A    between atoms: _401  and  _402
REMARK  167  A    between atoms: _401  and  _404
REMARK  168  A    between atoms: _404  and  _405
REMARK  169  A    between atoms: _408  and  _410
REMARK  170  A    between atoms: _410  and  _411
REMARK  171  A    between atoms: _410  and  _413
REMARK  172  A    between atoms: _413  and  _414
REMARK  173  A    between atoms: _417  and  _419
REMARK  174  A    between atoms: _419  and  _420
REMARK  175  A    between atoms: _419  and  _422
REMARK  176  A    between atoms: _422  and  _423
REMARK  177  A    between atoms: _429  and  _431
REMARK  178  A    between atoms: _431  and  _432
REMARK  179  A    between atoms: _431  and  _434
REMARK  180  A    between atoms: _434  and  _435
REMARK  181  A    between atoms: _435  and  _436
REMARK  182  A    between atoms: _438  and  _440
REMARK  183  A    between atoms: _440  and  _441
REMARK  184  A    between atoms: _440  and  _443
REMARK  185  A    between atoms: _443  and  _444
REMARK  186  A    between atoms: _450  and  _452
REMARK  187  A    between atoms: _452  and  _453
REMARK  188  A    between atoms: _452  and  _455
REMARK  189  A    between atoms: _455  and  _456
REMARK  190  A    between atoms: _459  and  _461
REMARK  191  A    between atoms: _461  and  _462
REMARK  192  A    between atoms: _461  and  _464
REMARK  193  A    between atoms: _464  and  _465
REMARK  194  A    between atoms: _465  and  _466
REMARK  195  A    between atoms: _471  and  _473
REMARK  196  A    between atoms: _473  and  _474
REMARK  197  A    between atoms: _473  and  _476
REMARK  198  A    between atoms: _476  and  _477
REMARK  199  A    between atoms: _477  and  _478
REMARK  200  A    between atoms: _478  and  _479
REMARK  201  A    between atoms: _479  and  _480
REMARK  202  A    between atoms: _484  and  _486
REMARK  203  A    between atoms: _486  and  _487
REMARK  204  A    between atoms: _486  and  _489
REMARK  205  A    between atoms: _489  and  _490
REMARK  206  A    between atoms: _493  and  _495
REMARK  207  A    between atoms: _495  and  _496
REMARK  208  A    between atoms: _495  and  _498
REMARK  209  A    between atoms: _498  and  _499
REMARK  210  A    between atoms: _504  and  _506
REMARK  211  A    between atoms: _506  and  _507
REMARK  212  A    between atoms: _506  and  _509
REMARK  213  A    between atoms: _509  and  _510
REMARK  214  A    between atoms: _513  and  _515
REMARK  215  A    between atoms: _515  and  _516
REMARK  216  A    between atoms: _515  and  _518
REMARK  217  A    between atoms: _518  and  _519
REMARK  218  A    between atoms: _519  and  _520
REMARK  219  A    between atoms: _520  and  _521
REMARK  220  A    between atoms: _530  and  _532
REMARK  221  A    between atoms: _532  and  _533
REMARK  222  A    between atoms: _532  and  _535
REMARK  223  A    between atoms: _535  and  _536
REMARK  224  A    between atoms: _539  and  _541
REMARK  225  A    between atoms: _541  and  _542
REMARK  226  A    between atoms: _541  and  _544
REMARK  227  A    between atoms: _544  and  _545
REMARK  228  A    between atoms: _545  and  _546
REMARK  229  A    between atoms: _549  and  _551
REMARK  230  A    between atoms: _551  and  _552
REMARK  231  A    between atoms: _551  and  _554
REMARK  232  A    between atoms: _554  and  _555
REMARK  233  A    between atoms: _561  and  _563
REMARK  234  A    between atoms: _563  and  _564
REMARK  235  A    between atoms: _563  and  _566
REMARK  236  A    between atoms: _566  and  _567
REMARK  237  A    between atoms: _571  and  _572
REMARK  238  A    between atoms: _577  and  _579
REMARK  239  A    between atoms: _579  and  _580
REMARK  240  A    between atoms: _579  and  _582
REMARK  241  A    between atoms: _582  and  _583
REMARK  242  A    between atoms: _583  and  _584
REMARK  243  A    between atoms: _589  and  _591
REMARK  244  A    between atoms: _591  and  _592
REMARK  245  A    between atoms: _591  and  _594
REMARK  246  A    between atoms: _597  and  _599
REMARK  247  A    between atoms: _599  and  _600
REMARK  248  A    between atoms: _599  and  _602
REMARK  249  A    between atoms: _602  and  _603
REMARK  250  A    between atoms: _603  and  _604
REMARK  251  A    between atoms: _606  and  _608
REMARK  252  A    between atoms: _608  and  _609
REMARK  253  A    between atoms: _612  and  _614
REMARK  254  A    between atoms: _614  and  _615
REMARK  255  A    between atoms: _614  and  _617
REMARK  256  A    between atoms: _617  and  _618
REMARK  257  A    between atoms: _621  and  _623
REMARK  258  A    between atoms: _623  and  _624
REMARK  259  A    between atoms: _627  and  _629
REMARK  260  A    between atoms: _629  and  _630
REMARK  261  A    between atoms: _629  and  _632
REMARK  262  A    between atoms: _632  and  _633
REMARK  263  A    between atoms: _636  and  _638
REMARK  264  A    between atoms: _638  and  _639
REMARK  265  A    between atoms: _638  and  _641
REMARK  266  A    between atoms: _641  and  _642
REMARK  267  A    between atoms: _645  and  _647
REMARK  268  A    between atoms: _647  and  _648
REMARK  269  A    between atoms: _647  and  _650
REMARK  270  A    between atoms: _650  and  _651
REMARK  271  A    between atoms: _654  and  _656
REMARK  272  A    between atoms: _656  and  _657
REMARK  273  A    between atoms: _656  and  _659
REMARK  274  A    between atoms: _659  and  _660
REMARK  275  A    between atoms: _660  and  _661
REMARK  276  A    between atoms: _666  and  _668
REMARK  277  A    between atoms: _668  and  _669
REMARK  278  A    between atoms: _672  and  _674
REMARK  279  A    between atoms: _674  and  _675
REMARK  280  A    between atoms: _674  and  _677
REMARK  281  A    between atoms: _680  and  _682
REMARK  282  A    between atoms: _682  and  _683
REMARK  283  A    between atoms: _682  and  _685
REMARK  284  A    between atoms: _685  and  _686
REMARK  285  A    between atoms: _689  and  _691
REMARK  286  A    between atoms: _691  and  _692
REMARK  287  A    between atoms: _691  and  _694
REMARK  288  A    between atoms: _694  and  _695
REMARK  289  A    between atoms: _695  and  _696
REMARK                            x       y       z     vdW  Elec       q    Type
REMARK                         _______ _______ _______ _____ _____    ______ ____
ROOT
ATOM      1  O   HOH     1      28.073  56.774  54.705  0.00  0.00    +0.000 OA
ENDROOT
TORSDOF 0
REMARK  Name = ../refined-set-2016/3vjc/3vjc_pocket.pdb
REMARK  289 active torsions:
REMARK  status: ('A' for Active; 'I' for Inactive)
REMARK    1  A    between atoms: _1  and  _3
REMARK    2  A    between atoms: _3  and  _4
REMARK    3  A    between atoms: _3  and  _6
REMARK    4  A    between atoms: _6  and  _7
REMARK    5  A    between atoms: _10  and  _12
REMARK    6  A    between atoms: _12  and  _13
REMARK    7  A    between atoms: _12  and  _15
REMARK    8  A    between atoms: _15  and  _16
REMARK    9  A    between atoms: _21  and  _23
REMARK   10  A    between atoms: _23  and  _24
REMARK   11  A    between atoms: _23  and  _26
REMARK   12  A    between atoms: _26  and  _27
REMARK   13  A    between atoms: _27  and  _28
REMARK   14  A    between atoms: _33  and  _35
REMARK   15  A    between atoms: _35  and  _36
REMARK   16  A    between atoms: _35  and  _38
REMARK   17  A    between atoms: _38  and  _39
REMARK   18  A    between atoms: _42  and  _44
REMARK   19  A    between atoms: _44  and  _45
REMARK   20  A    between atoms: _44  and  _47
REMARK   21  A    between atoms: _47  and  _48
REMARK   22  A    between atoms: _50  and  _52
REMARK   23  A    between atoms: _52  and  _53
REMARK   24  A    between atoms: _52  and  _55
REMARK   25  A    between atoms: _55  and  _56
REMARK   26  A    between atoms: _56  and  _57
REMARK   27  A    between atoms: _57  and  _58
REMARK   28  A    between atoms: _67  and  _69
REMARK   29  A    between atoms: _69  and  _70
REMARK   30  A    between atoms: _69  and  _72
REMARK   31  A    between atoms: _72  and  _73
REMARK   32  A    between atoms: _75  and  _77
REMARK   33  A    between atoms: _77  and  _78
REMARK   34  A    between atoms: _77  and  _80
REMARK   35  A    between atoms: _80  and  _81
REMARK   36  A    between atoms: _87  and  _89
REMARK   37  A    between atoms: _89  and  _90
REMARK   38  A    between atoms: _93  and  _95
REMARK   39  A    between atoms: _95  and  _96
REMARK   40  A    between atoms: _99  and  _101
REMARK   41  A    between atoms: _101  and  _102
REMARK   42  A    between atoms: _101  and  _104
REMARK   43  A    between atoms: _107  and  _109
REMARK   44  A    between atoms: _109  and  _110
REMARK   45  A    between atoms: _109  and  _112
REMARK   46  A    between atoms: _112  and  _113
REMARK   47  A    between atoms: _116  and  _118
REMARK   48  A    between atoms: _118  and  _119
REMARK   49  A    between atoms: _118  and  _121
REMARK   50  A    between atoms: _121  and  _122
REMARK   51  A    between atoms: _125  and  _127
REMARK   52  A    between atoms: _127  and  _128
REMARK   53  A    between atoms: _131  and  _133
REMARK   54  A    between atoms: _133  and  _134
REMARK   55  A    between atoms: _133  and  _136
REMARK   56  A    between atoms: _139  and  _141
REMARK   57  A    between atoms: _141  and  _142
REMARK   58  A    between atoms: _141  and  _144
REMARK   59  A    between atoms: _146  and  _148
REMARK   60  A    between atoms: _148  and  _149
REMARK   61  A    between atoms: _148  and  _151
REMARK   62  A    between atoms: _151  and  _152
REMARK   63  A    between atoms: _155  and  _157
REMARK   64  A    between atoms: _157  and  _158
REMARK   65  A    between atoms: _157  and  _160
REMARK   66  A    between atoms: _160  and  _161
REMARK   67  A    between atoms: _167  and  _169
REMARK   68  A    between atoms: _169  and  _170
REMARK   69  A    between atoms: _169  and  _172
REMARK   70  A    between atoms: _172  and  _173
REMARK   71  A    between atoms: _178  and  _179
REMARK   72  A    between atoms: _181  and  _183
REMARK   73  A    between atoms: _183  and  _184
REMARK   74  A    between atoms: _183  and  _186
REMARK   75  A    between atoms: _186  and  _187
REMARK   76  A    between atoms: _190  and  _192
REMARK   77  A    between atoms: _192  and  _193
REMARK   78  A    between atoms: _192  and  _195
REMARK   79  A    between atoms: _198  and  _200
REMARK   80  A    between atoms: _200  and  _201
REMARK   81  A    between atoms: _200  and  _203
REMARK   82  A    between atoms: _203  and  _204
REMARK   83  A    between atoms: _207  and  _209
REMARK   84  A    between atoms: _209  and  _210
REMARK   85  A    between atoms: _209  and  _212
REMARK   86  A    between atoms: _212  and  _213
REMARK   87  A    between atoms: _213  and  _214
REMARK   88  A    between atoms: _214  and  _215
REMARK   89  A    between atoms: _224  and  _226
REMARK   90  A    between atoms: _226  and  _227
REMARK   91  A    between atoms: _230  and  _232
REMARK   92  A    between atoms: _232  and  _233
REMARK   93  A    between atoms: _232  and  _235
REMARK   94  A    between atoms: _235  and  _236
REMARK   95  A    between atoms: _239  and  _241
REMARK   96  A    between atoms: _241  and  _242
REMARK   97  A    between atoms: _241  and  _244
REMARK   98  A    between atoms: _244  and  _245
REMARK   99  A    between atoms: _248  and  _250
REMARK  100  A    between atoms: _250  and  _251
REMARK  101  A    between atoms: _250  and  _253
REMARK  102  A    between atoms: _253  and  _254
REMARK  103  A    between atoms: _257  and  _259
REMARK  104  A    between atoms: _259  and  _260
REMARK  105  A    between atoms: _259  and  _262
REMARK  106  A    between atoms: _262  and  _263
REMARK  107  A    between atoms: _263  and  _264
REMARK  108  A    between atoms: _267  and  _269
REMARK  109  A    between atoms: _269  and  _270
REMARK  110  A    between atoms: _269  and  _272
REMARK  111  A    between atoms: _272  and  _273
REMARK  112  A    between atoms: _276  and  _278
REMARK  113  A    between atoms: _278  and  _279
REMARK  114  A    between atoms: _278  and  _281
REMARK  115  A    between atoms: _281  and  _282
REMARK  116  A    between atoms: _282  and  _283
REMARK  117  A    between atoms: _283  and  _284
REMARK  118  A    between atoms: _284  and  _285
REMARK  119  A    between atoms: _289  and  _291
REMARK  120  A    between atoms: _291  and  _292
REMARK  121  A    between atoms: _291  and  _294
REMARK  122  A    between atoms: _294  and  _295
REMARK  123  A    between atoms: _298  and  _300
REMARK  124  A    between atoms: _300  and  _301
REMARK  125  A    between atoms: _300  and  _303
REMARK  126  A    between atoms: _303  and  _304
REMARK  127  A    between atoms: _307  and  _309
REMARK  128  A    between atoms: _309  and  _310
REMARK  129  A    between atoms: _309  and  _312
REMARK  130  A    between atoms: _312  and  _313
REMARK  131  A    between atoms: _313  and  _314
REMARK  132  A    between atoms: _316  and  _318
REMARK  133  A    between atoms: _318  and  _319
REMARK  134  A    between atoms: _318  and  _321
REMARK  135  A    between atoms: _321  and  _322
REMARK  136  A    between atoms: _322  and  _323
REMARK  137  A    between atoms: _325  and  _327
REMARK  138  A    between atoms: _327  and  _328
REMARK  139  A    between atoms: _327  and  _330
REMARK  140  A    between atoms: _330  and  _331
REMARK  141  A    between atoms: _336  and  _337
REMARK  142  A    between atoms: _339  and  _341
REMARK  143  A    between atoms: _341  and  _342
REMARK  144  A    between atoms: _341  and  _344
REMARK  145  A    between atoms: _344  and  _345
REMARK  146  A    between atoms: _350  and  _351
REMARK  147  A    between atoms: _353  and  _355
REMARK  148  A    between atoms: _355  and  _356
REMARK  149  A    between atoms: _355  and  _358
REMARK  150  A    between atoms: _361  and  _363
REMARK  151  A    between atoms: _363  and  _364
REMARK  152  A    between atoms: _367  and  _369
REMARK  153  A    between atoms: _369  and  _370
REMARK  154  A    between atoms: _372  and  _374
REMARK  155  A    between atoms: _374  and  _375
REMARK  156  A    between atoms: _374  and  _377
REMARK  157  A    between atoms: _377  and  _378
REMARK  158  A    between atoms: _381  and  _383
REMARK  159  A    between atoms: _383  and  _384
REMARK  160  A    between atoms: _383  and  _386
REMARK  161  A    between atoms: _389  and  _391
REMARK  162  A    between atoms: _391  and  _392
REMARK  163  A    between atoms: _394  and  _396
REMARK  164  A    between atoms: _396  and  _397
REMARK  165  A    between atoms: _399  and  _401
REMARK  166  A    between atoms: _401  and  _402
REMARK  167  A    between atoms: _401  and  _404
REMARK  168  A    between atoms: _404  and  _405
REMARK  169  A    between atoms: _408  and  _410
REMARK  170  A    between atoms: _410  and  _411
REMARK  171  A    between atoms: _410  and  _413
REMARK  172  A    between atoms: _413  and  _414
REMARK  173  A    between atoms: _417  and  _419
REMARK  174  A    between atoms: _419  and  _420
REMARK  175  A    between atoms: _419  and  _422
REMARK  176  A    between atoms: _422  and  _423
REMARK  177  A    between atoms: _429  and  _431
REMARK  178  A    between atoms: _431  and  _432
REMARK  179  A    between atoms: _431  and  _434
REMARK  180  A    between atoms: _434  and  _435
REMARK  181  A    between atoms: _435  and  _436
REMARK  182  A    between atoms: _438  and  _440
REMARK  183  A    between atoms: _440  and  _441
REMARK  184  A    between atoms: _440  and  _443
REMARK  185  A    between atoms: _443  and  _444
REMARK  186  A    between atoms: _450  and  _452
REMARK  187  A    between atoms: _452  and  _453
REMARK  188  A    between atoms: _452  and  _455
REMARK  189  A    between atoms: _455  and  _456
REMARK  190  A    between atoms: _459  and  _461
REMARK  191  A    between atoms: _461  and  _462
REMARK  192  A    between atoms: _461  and  _464
REMARK  193  A    between atoms: _464  and  _465
REMARK  194  A    between atoms: _465  and  _466
REMARK  195  A    between atoms: _471  and  _473
REMARK  196  A    between atoms: _473  and  _474
REMARK  197  A    between atoms: _473  and  _476
REMARK  198  A    between atoms: _476  and  _477
REMARK  199  A    between atoms: _477  and  _478
REMARK  200  A    between atoms: _478  and  _479
REMARK  201  A    between atoms: _479  and  _480
REMARK  202  A    between atoms: _484  and  _486
REMARK  203  A    between atoms: _486  and  _487
REMARK  204  A    between atoms: _486  and  _489
REMARK  205  A    between atoms: _489  and  _490
REMARK  206  A    between atoms: _493  and  _495
REMARK  207  A    between atoms: _495  and  _496
REMARK  208  A    between atoms: _495  and  _498
REMARK  209  A    between atoms: _498  and  _499
REMARK  210  A    between atoms: _504  and  _506
REMARK  211  A    between atoms: _506  and  _507
REMARK  212  A    between atoms: _506  and  _509
REMARK  213  A    between atoms: _509  and  _510
REMARK  214  A    between atoms: _513  and  _515
REMARK  215  A    between atoms: _515  and  _516
REMARK  216  A    between atoms: _515  and  _518
REMARK  217  A    between atoms: _518  and  _519
REMARK  218  A    between atoms: _519  and  _520
REMARK  219  A    between atoms: _520  and  _521
REMARK  220  A    between atoms: _530  and  _532
REMARK  221  A    between atoms: _532  and  _533
REMARK  222  A    between atoms: _532  and  _535
REMARK  223  A    between atoms: _535  and  _536
REMARK  224  A    between atoms: _539  and  _541
REMARK  225  A    between atoms: _541  and  _542
REMARK  226  A    between atoms: _541  and  _544
REMARK  227  A    between atoms: _544  and  _545
REMARK  228  A    between atoms: _545  and  _546
REMARK  229  A    between atoms: _549  and  _551
REMARK  230  A    between atoms: _551  and  _552
REMARK  231  A    between atoms: _551  and  _554
REMARK  232  A    between atoms: _554  and  _555
REMARK  233  A    between atoms: _561  and  _563
REMARK  234  A    between atoms: _563  and  _564
REMARK  235  A    between atoms: _563  and  _566
REMARK  236  A    between atoms: _566  and  _567
REMARK  237  A    between atoms: _571  and  _572
REMARK  238  A    between atoms: _577  and  _579
REMARK  239  A    between atoms: _579  and  _580
REMARK  240  A    between atoms: _579  and  _582
REMARK  241  A    between atoms: _582  and  _583
REMARK  242  A    between atoms: _583  and  _584
REMARK  243  A    between atoms: _589  and  _591
REMARK  244  A    between atoms: _591  and  _592
REMARK  245  A    between atoms: _591  and  _594
REMARK  246  A    between atoms: _597  and  _599
REMARK  247  A    between atoms: _599  and  _600
REMARK  248  A    between atoms: _599  and  _602
REMARK  249  A    between atoms: _602  and  _603
REMARK  250  A    between atoms: _603  and  _604
REMARK  251  A    between atoms: _606  and  _608
REMARK  252  A    between atoms: _608  and  _609
REMARK  253  A    between atoms: _612  and  _614
REMARK  254  A    between atoms: _614  and  _615
REMARK  255  A    between atoms: _614  and  _617
REMARK  256  A    between atoms: _617  and  _618
REMARK  257  A    between atoms: _621  and  _623
REMARK  258  A    between atoms: _623  and  _624
REMARK  259  A    between atoms: _627  and  _629
REMARK  260  A    between atoms: _629  and  _630
REMARK  261  A    between atoms: _629  and  _632
REMARK  262  A    between atoms: _632  and  _633
REMARK  263  A    between atoms: _636  and  _638
REMARK  264  A    between atoms: _638  and  _639
REMARK  265  A    between atoms: _638  and  _641
REMARK  266  A    between atoms: _641  and  _642
REMARK  267  A    between atoms: _645  and  _647
REMARK  268  A    between atoms: _647  and  _648
REMARK  269  A    between atoms: _647  and  _650
REMARK  270  A    between atoms: _650  and  _651
REMARK  271  A    between atoms: _654  and  _656
REMARK  272  A    between atoms: _656  and  _657
REMARK  273  A    between atoms: _656  and  _659
REMARK  274  A    between atoms: _659  and  _660
REMARK  275  A    between atoms: _660  and  _661
REMARK  276  A    between atoms: _666  and  _668
REMARK  277  A    between atoms: _668  and  _669
REMARK  278  A    between atoms: _672  and  _674
REMARK  279  A    between atoms: _674  and  _675
REMARK  280  A    between atoms: _674  and  _677
REMARK  281  A    between atoms: _680  and  _682
REMARK  282  A    between atoms: _682  and  _683
REMARK  283  A    between atoms: _682  and  _685
REMARK  284  A    between atoms: _685  and  _686
REMARK  285  A    between atoms: _689  and  _691
REMARK  286  A    between atoms: _691  and  _692
REMARK  287  A    between atoms: _691  and  _694
REMARK  288  A    between atoms: _694  and  _695
REMARK  289  A    between atoms: _695  and  _696
REMARK                            x       y       z     vdW  Elec       q    Type
REMARK                         _______ _______ _______ _____ _____    ______ ____
ROOT
ATOM      1  O   HOH     1      22.819  62.405  58.172  0.00  0.00    +0.000 OA
ENDROOT
TORSDOF 0
REMARK  Name = ../refined-set-2016/3vjc/3vjc_pocket.pdb
REMARK  289 active torsions:
REMARK  status: ('A' for Active; 'I' for Inactive)
REMARK    1  A    between atoms: _1  and  _3
REMARK    2  A    between atoms: _3  and  _4
REMARK    3  A    between atoms: _3  and  _6
REMARK    4  A    between atoms: _6  and  _7
REMARK    5  A    between atoms: _10  and  _12
REMARK    6  A    between atoms: _12  and  _13
REMARK    7  A    between atoms: _12  and  _15
REMARK    8  A    between atoms: _15  and  _16
REMARK    9  A    between atoms: _21  and  _23
REMARK   10  A    between atoms: _23  and  _24
REMARK   11  A    between atoms: _23  and  _26
REMARK   12  A    between atoms: _26  and  _27
REMARK   13  A    between atoms: _27  and  _28
REMARK   14  A    between atoms: _33  and  _35
REMARK   15  A    between atoms: _35  and  _36
REMARK   16  A    between atoms: _35  and  _38
REMARK   17  A    between atoms: _38  and  _39
REMARK   18  A    between atoms: _42  and  _44
REMARK   19  A    between atoms: _44  and  _45
REMARK   20  A    between atoms: _44  and  _47
REMARK   21  A    between atoms: _47  and  _48
REMARK   22  A    between atoms: _50  and  _52
REMARK   23  A    between atoms: _52  and  _53
REMARK   24  A    between atoms: _52  and  _55
REMARK   25  A    between atoms: _55  and  _56
REMARK   26  A    between atoms: _56  and  _57
REMARK   27  A    between atoms: _57  and  _58
REMARK   28  A    between atoms: _67  and  _69
REMARK   29  A    between atoms: _69  and  _70
REMARK   30  A    between atoms: _69  and  _72
REMARK   31  A    between atoms: _72  and  _73
REMARK   32  A    between atoms: _75  and  _77
REMARK   33  A    between atoms: _77  and  _78
REMARK   34  A    between atoms: _77  and  _80
REMARK   35  A    between atoms: _80  and  _81
REMARK   36  A    between atoms: _87  and  _89
REMARK   37  A    between atoms: _89  and  _90
REMARK   38  A    between atoms: _93  and  _95
REMARK   39  A    between atoms: _95  and  _96
REMARK   40  A    between atoms: _99  and  _101
REMARK   41  A    between atoms: _101  and  _102
REMARK   42  A    between atoms: _101  and  _104
REMARK   43  A    between atoms: _107  and  _109
REMARK   44  A    between atoms: _109  and  _110
REMARK   45  A    between atoms: _109  and  _112
REMARK   46  A    between atoms: _112  and  _113
REMARK   47  A    between atoms: _116  and  _118
REMARK   48  A    between atoms: _118  and  _119
REMARK   49  A    between atoms: _118  and  _121
REMARK   50  A    between atoms: _121  and  _122
REMARK   51  A    between atoms: _125  and  _127
REMARK   52  A    between atoms: _127  and  _128
REMARK   53  A    between atoms: _131  and  _133
REMARK   54  A    between atoms: _133  and  _134
REMARK   55  A    between atoms: _133  and  _136
REMARK   56  A    between atoms: _139  and  _141
REMARK   57  A    between atoms: _141  and  _142
REMARK   58  A    between atoms: _141  and  _144
REMARK   59  A    between atoms: _146  and  _148
REMARK   60  A    between atoms: _148  and  _149
REMARK   61  A    between atoms: _148  and  _151
REMARK   62  A    between atoms: _151  and  _152
REMARK   63  A    between atoms: _155  and  _157
REMARK   64  A    between atoms: _157  and  _158
REMARK   65  A    between atoms: _157  and  _160
REMARK   66  A    between atoms: _160  and  _161
REMARK   67  A    between atoms: _167  and  _169
REMARK   68  A    between atoms: _169  and  _170
REMARK   69  A    between atoms: _169  and  _172
REMARK   70  A    between atoms: _172  and  _173
REMARK   71  A    between atoms: _178  and  _179
REMARK   72  A    between atoms: _181  and  _183
REMARK   73  A    between atoms: _183  and  _184
REMARK   74  A    between atoms: _183  and  _186
REMARK   75  A    between atoms: _186  and  _187
REMARK   76  A    between atoms: _190  and  _192
REMARK   77  A    between atoms: _192  and  _193
REMARK   78  A    between atoms: _192  and  _195
REMARK   79  A    between atoms: _198  and  _200
REMARK   80  A    between atoms: _200  and  _201
REMARK   81  A    between atoms: _200  and  _203
REMARK   82  A    between atoms: _203  and  _204
REMARK   83  A    between atoms: _207  and  _209
REMARK   84  A    between atoms: _209  and  _210
REMARK   85  A    between atoms: _209  and  _212
REMARK   86  A    between atoms: _212  and  _213
REMARK   87  A    between atoms: _213  and  _214
REMARK   88  A    between atoms: _214  and  _215
REMARK   89  A    between atoms: _224  and  _226
REMARK   90  A    between atoms: _226  and  _227
REMARK   91  A    between atoms: _230  and  _232
REMARK   92  A    between atoms: _232  and  _233
REMARK   93  A    between atoms: _232  and  _235
REMARK   94  A    between atoms: _235  and  _236
REMARK   95  A    between atoms: _239  and  _241
REMARK   96  A    between atoms: _241  and  _242
REMARK   97  A    between atoms: _241  and  _244
REMARK   98  A    between atoms: _244  and  _245
REMARK   99  A    between atoms: _248  and  _250
REMARK  100  A    between atoms: _250  and  _251
REMARK  101  A    between atoms: _250  and  _253
REMARK  102  A    between atoms: _253  and  _254
REMARK  103  A    between atoms: _257  and  _259
REMARK  104  A    between atoms: _259  and  _260
REMARK  105  A    between atoms: _259  and  _262
REMARK  106  A    between atoms: _262  and  _263
REMARK  107  A    between atoms: _263  and  _264
REMARK  108  A    between atoms: _267  and  _269
REMARK  109  A    between atoms: _269  and  _270
REMARK  110  A    between atoms: _269  and  _272
REMARK  111  A    between atoms: _272  and  _273
REMARK  112  A    between atoms: _276  and  _278
REMARK  113  A    between atoms: _278  and  _279
REMARK  114  A    between atoms: _278  and  _281
REMARK  115  A    between atoms: _281  and  _282
REMARK  116  A    between atoms: _282  and  _283
REMARK  117  A    between atoms: _283  and  _284
REMARK  118  A    between atoms: _284  and  _285
REMARK  119  A    between atoms: _289  and  _291
REMARK  120  A    between atoms: _291  and  _292
REMARK  121  A    between atoms: _291  and  _294
REMARK  122  A    between atoms: _294  and  _295
REMARK  123  A    between atoms: _298  and  _300
REMARK  124  A    between atoms: _300  and  _301
REMARK  125  A    between atoms: _300  and  _303
REMARK  126  A    between atoms: _303  and  _304
REMARK  127  A    between atoms: _307  and  _309
REMARK  128  A    between atoms: _309  and  _310
REMARK  129  A    between atoms: _309  and  _312
REMARK  130  A    between atoms: _312  and  _313
REMARK  131  A    between atoms: _313  and  _314
REMARK  132  A    between atoms: _316  and  _318
REMARK  133  A    between atoms: _318  and  _319
REMARK  134  A    between atoms: _318  and  _321
REMARK  135  A    between atoms: _321  and  _322
REMARK  136  A    between atoms: _322  and  _323
REMARK  137  A    between atoms: _325  and  _327
REMARK  138  A    between atoms: _327  and  _328
REMARK  139  A    between atoms: _327  and  _330
REMARK  140  A    between atoms: _330  and  _331
REMARK  141  A    between atoms: _336  and  _337
REMARK  142  A    between atoms: _339  and  _341
REMARK  143  A    between atoms: _341  and  _342
REMARK  144  A    between atoms: _341  and  _344
REMARK  145  A    between atoms: _344  and  _345
REMARK  146  A    between atoms: _350  and  _351
REMARK  147  A    between atoms: _353  and  _355
REMARK  148  A    between atoms: _355  and  _356
REMARK  149  A    between atoms: _355  and  _358
REMARK  150  A    between atoms: _361  and  _363
REMARK  151  A    between atoms: _363  and  _364
REMARK  152  A    between atoms: _367  and  _369
REMARK  153  A    between atoms: _369  and  _370
REMARK  154  A    between atoms: _372  and  _374
REMARK  155  A    between atoms: _374  and  _375
REMARK  156  A    between atoms: _374  and  _377
REMARK  157  A    between atoms: _377  and  _378
REMARK  158  A    between atoms: _381  and  _383
REMARK  159  A    between atoms: _383  and  _384
REMARK  160  A    between atoms: _383  and  _386
REMARK  161  A    between atoms: _389  and  _391
REMARK  162  A    between atoms: _391  and  _392
REMARK  163  A    between atoms: _394  and  _396
REMARK  164  A    between atoms: _396  and  _397
REMARK  165  A    between atoms: _399  and  _401
REMARK  166  A    between atoms: _401  and  _402
REMARK  167  A    between atoms: _401  and  _404
REMARK  168  A    between atoms: _404  and  _405
REMARK  169  A    between atoms: _408  and  _410
REMARK  170  A    between atoms: _410  and  _411
REMARK  171  A    between atoms: _410  and  _413
REMARK  172  A    between atoms: _413  and  _414
REMARK  173  A    between atoms: _417  and  _419
REMARK  174  A    between atoms: _419  and  _420
REMARK  175  A    between atoms: _419  and  _422
REMARK  176  A    between atoms: _422  and  _423
REMARK  177  A    between atoms: _429  and  _431
REMARK  178  A    between atoms: _431  and  _432
REMARK  179  A    between atoms: _431  and  _434
REMARK  180  A    between atoms: _434  and  _435
REMARK  181  A    between atoms: _435  and  _436
REMARK  182  A    between atoms: _438  and  _440
REMARK  183  A    between atoms: _440  and  _441
REMARK  184  A    between atoms: _440  and  _443
REMARK  185  A    between atoms: _443  and  _444
REMARK  186  A    between atoms: _450  and  _452
REMARK  187  A    between atoms: _452  and  _453
REMARK  188  A    between atoms: _452  and  _455
REMARK  189  A    between atoms: _455  and  _456
REMARK  190  A    between atoms: _459  and  _461
REMARK  191  A    between atoms: _461  and  _462
REMARK  192  A    between atoms: _461  and  _464
REMARK  193  A    between atoms: _464  and  _465
REMARK  194  A    between atoms: _465  and  _466
REMARK  195  A    between atoms: _471  and  _473
REMARK  196  A    between atoms: _473  and  _474
REMARK  197  A    between atoms: _473  and  _476
REMARK  198  A    between atoms: _476  and  _477
REMARK  199  A    between atoms: _477  and  _478
REMARK  200  A    between atoms: _478  and  _479
REMARK  201  A    between atoms: _479  and  _480
REMARK  202  A    between atoms: _484  and  _486
REMARK  203  A    between atoms: _486  and  _487
REMARK  204  A    between atoms: _486  and  _489
REMARK  205  A    between atoms: _489  and  _490
REMARK  206  A    between atoms: _493  and  _495
REMARK  207  A    between atoms: _495  and  _496
REMARK  208  A    between atoms: _495  and  _498
REMARK  209  A    between atoms: _498  and  _499
REMARK  210  A    between atoms: _504  and  _506
REMARK  211  A    between atoms: _506  and  _507
REMARK  212  A    between atoms: _506  and  _509
REMARK  213  A    between atoms: _509  and  _510
REMARK  214  A    between atoms: _513  and  _515
REMARK  215  A    between atoms: _515  and  _516
REMARK  216  A    between atoms: _515  and  _518
REMARK  217  A    between atoms: _518  and  _519
REMARK  218  A    between atoms: _519  and  _520
REMARK  219  A    between atoms: _520  and  _521
REMARK  220  A    between atoms: _530  and  _532
REMARK  221  A    between atoms: _532  and  _533
REMARK  222  A    between atoms: _532  and  _535
REMARK  223  A    between atoms: _535  and  _536
REMARK  224  A    between atoms: _539  and  _541
REMARK  225  A    between atoms: _541  and  _542
REMARK  226  A    between atoms: _541  and  _544
REMARK  227  A    between atoms: _544  and  _545
REMARK  228  A    between atoms: _545  and  _546
REMARK  229  A    between atoms: _549  and  _551
REMARK  230  A    between atoms: _551  and  _552
REMARK  231  A    between atoms: _551  and  _554
REMARK  232  A    between atoms: _554  and  _555
REMARK  233  A    between atoms: _561  and  _563
REMARK  234  A    between atoms: _563  and  _564
REMARK  235  A    between atoms: _563  and  _566
REMARK  236  A    between atoms: _566  and  _567
REMARK  237  A    between atoms: _571  and  _572
REMARK  238  A    between atoms: _577  and  _579
REMARK  239  A    between atoms: _579  and  _580
REMARK  240  A    between atoms: _579  and  _582
REMARK  241  A    between atoms: _582  and  _583
REMARK  242  A    between atoms: _583  and  _584
REMARK  243  A    between atoms: _589  and  _591
REMARK  244  A    between atoms: _591  and  _592
REMARK  245  A    between atoms: _591  and  _594
REMARK  246  A    between atoms: _597  and  _599
REMARK  247  A    between atoms: _599  and  _600
REMARK  248  A    between atoms: _599  and  _602
REMARK  249  A    between atoms: _602  and  _603
REMARK  250  A    between atoms: _603  and  _604
REMARK  251  A    between atoms: _606  and  _608
REMARK  252  A    between atoms: _608  and  _609
REMARK  253  A    between atoms: _612  and  _614
REMARK  254  A    between atoms: _614  and  _615
REMARK  255  A    between atoms: _614  and  _617
REMARK  256  A    between atoms: _617  and  _618
REMARK  257  A    between atoms: _621  and  _623
REMARK  258  A    between atoms: _623  and  _624
REMARK  259  A    between atoms: _627  and  _629
REMARK  260  A    between atoms: _629  and  _630
REMARK  261  A    between atoms: _629  and  _632
REMARK  262  A    between atoms: _632  and  _633
REMARK  263  A    between atoms: _636  and  _638
REMARK  264  A    between atoms: _638  and  _639
REMARK  265  A    between atoms: _638  and  _641
REMARK  266  A    between atoms: _641  and  _642
REMARK  267  A    between atoms: _645  and  _647
REMARK  268  A    between atoms: _647  and  _648
REMARK  269  A    between atoms: _647  and  _650
REMARK  270  A    between atoms: _650  and  _651
REMARK  271  A    between atoms: _654  and  _656
REMARK  272  A    between atoms: _656  and  _657
REMARK  273  A    between atoms: _656  and  _659
REMARK  274  A    between atoms: _659  and  _660
REMARK  275  A    between atoms: _660  and  _661
REMARK  276  A    between atoms: _666  and  _668
REMARK  277  A    between atoms: _668  and  _669
REMARK  278  A    between atoms: _672  and  _674
REMARK  279  A    between atoms: _674  and  _675
REMARK  280  A    between atoms: _674  and  _677
REMARK  281  A    between atoms: _680  and  _682
REMARK  282  A    between atoms: _682  and  _683
REMARK  283  A    between atoms: _682  and  _685
REMARK  284  A    between atoms: _685  and  _686
REMARK  285  A    between atoms: _689  and  _691
REMARK  286  A    between atoms: _691  and  _692
REMARK  287  A    between atoms: _691  and  _694
REMARK  288  A    between atoms: _694  and  _695
REMARK  289  A    between atoms: _695  and  _696
REMARK                            x       y       z     vdW  Elec       q    Type
REMARK                         _______ _______ _______ _____ _____    ______ ____
ROOT
ATOM      1  O   HOH     1      15.631  61.244  57.657  0.00  0.00    +0.000 OA
ENDROOT
TORSDOF 0
REMARK  Name = ../refined-set-2016/3vjc/3vjc_pocket.pdb
REMARK  289 active torsions:
REMARK  status: ('A' for Active; 'I' for Inactive)
REMARK    1  A    between atoms: _1  and  _3
REMARK    2  A    between atoms: _3  and  _4
REMARK    3  A    between atoms: _3  and  _6
REMARK    4  A    between atoms: _6  and  _7
REMARK    5  A    between atoms: _10  and  _12
REMARK    6  A    between atoms: _12  and  _13
REMARK    7  A    between atoms: _12  and  _15
REMARK    8  A    between atoms: _15  and  _16
REMARK    9  A    between atoms: _21  and  _23
REMARK   10  A    between atoms: _23  and  _24
REMARK   11  A    between atoms: _23  and  _26
REMARK   12  A    between atoms: _26  and  _27
REMARK   13  A    between atoms: _27  and  _28
REMARK   14  A    between atoms: _33  and  _35
REMARK   15  A    between atoms: _35  and  _36
REMARK   16  A    between atoms: _35  and  _38
REMARK   17  A    between atoms: _38  and  _39
REMARK   18  A    between atoms: _42  and  _44
REMARK   19  A    between atoms: _44  and  _45
REMARK   20  A    between atoms: _44  and  _47
REMARK   21  A    between atoms: _47  and  _48
REMARK   22  A    between atoms: _50  and  _52
REMARK   23  A    between atoms: _52  and  _53
REMARK   24  A    between atoms: _52  and  _55
REMARK   25  A    between atoms: _55  and  _56
REMARK   26  A    between atoms: _56  and  _57
REMARK   27  A    between atoms: _57  and  _58
REMARK   28  A    between atoms: _67  and  _69
REMARK   29  A    between atoms: _69  and  _70
REMARK   30  A    between atoms: _69  and  _72
REMARK   31  A    between atoms: _72  and  _73
REMARK   32  A    between atoms: _75  and  _77
REMARK   33  A    between atoms: _77  and  _78
REMARK   34  A    between atoms: _77  and  _80
REMARK   35  A    between atoms: _80  and  _81
REMARK   36  A    between atoms: _87  and  _89
REMARK   37  A    between atoms: _89  and  _90
REMARK   38  A    between atoms: _93  and  _95
REMARK   39  A    between atoms: _95  and  _96
REMARK   40  A    between atoms: _99  and  _101
REMARK   41  A    between atoms: _101  and  _102
REMARK   42  A    between atoms: _101  and  _104
REMARK   43  A    between atoms: _107  and  _109
REMARK   44  A    between atoms: _109  and  _110
REMARK   45  A    between atoms: _109  and  _112
REMARK   46  A    between atoms: _112  and  _113
REMARK   47  A    between atoms: _116  and  _118
REMARK   48  A    between atoms: _118  and  _119
REMARK   49  A    between atoms: _118  and  _121
REMARK   50  A    between atoms: _121  and  _122
REMARK   51  A    between atoms: _125  and  _127
REMARK   52  A    between atoms: _127  and  _128
REMARK   53  A    between atoms: _131  and  _133
REMARK   54  A    between atoms: _133  and  _134
REMARK   55  A    between atoms: _133  and  _136
REMARK   56  A    between atoms: _139  and  _141
REMARK   57  A    between atoms: _141  and  _142
REMARK   58  A    between atoms: _141  and  _144
REMARK   59  A    between atoms: _146  and  _148
REMARK   60  A    between atoms: _148  and  _149
REMARK   61  A    between atoms: _148  and  _151
REMARK   62  A    between atoms: _151  and  _152
REMARK   63  A    between atoms: _155  and  _157
REMARK   64  A    between atoms: _157  and  _158
REMARK   65  A    between atoms: _157  and  _160
REMARK   66  A    between atoms: _160  and  _161
REMARK   67  A    between atoms: _167  and  _169
REMARK   68  A    between atoms: _169  and  _170
REMARK   69  A    between atoms: _169  and  _172
REMARK   70  A    between atoms: _172  and  _173
REMARK   71  A    between atoms: _178  and  _179
REMARK   72  A    between atoms: _181  and  _183
REMARK   73  A    between atoms: _183  and  _184
REMARK   74  A    between atoms: _183  and  _186
REMARK   75  A    between atoms: _186  and  _187
REMARK   76  A    between atoms: _190  and  _192
REMARK   77  A    between atoms: _192  and  _193
REMARK   78  A    between atoms: _192  and  _195
REMARK   79  A    between atoms: _198  and  _200
REMARK   80  A    between atoms: _200  and  _201
REMARK   81  A    between atoms: _200  and  _203
REMARK   82  A    between atoms: _203  and  _204
REMARK   83  A    between atoms: _207  and  _209
REMARK   84  A    between atoms: _209  and  _210
REMARK   85  A    between atoms: _209  and  _212
REMARK   86  A    between atoms: _212  and  _213
REMARK   87  A    between atoms: _213  and  _214
REMARK   88  A    between atoms: _214  and  _215
REMARK   89  A    between atoms: _224  and  _226
REMARK   90  A    between atoms: _226  and  _227
REMARK   91  A    between atoms: _230  and  _232
REMARK   92  A    between atoms: _232  and  _233
REMARK   93  A    between atoms: _232  and  _235
REMARK   94  A    between atoms: _235  and  _236
REMARK   95  A    between atoms: _239  and  _241
REMARK   96  A    between atoms: _241  and  _242
REMARK   97  A    between atoms: _241  and  _244
REMARK   98  A    between atoms: _244  and  _245
REMARK   99  A    between atoms: _248  and  _250
REMARK  100  A    between atoms: _250  and  _251
REMARK  101  A    between atoms: _250  and  _253
REMARK  102  A    between atoms: _253  and  _254
REMARK  103  A    between atoms: _257  and  _259
REMARK  104  A    between atoms: _259  and  _260
REMARK  105  A    between atoms: _259  and  _262
REMARK  106  A    between atoms: _262  and  _263
REMARK  107  A    between atoms: _263  and  _264
REMARK  108  A    between atoms: _267  and  _269
REMARK  109  A    between atoms: _269  and  _270
REMARK  110  A    between atoms: _269  and  _272
REMARK  111  A    between atoms: _272  and  _273
REMARK  112  A    between atoms: _276  and  _278
REMARK  113  A    between atoms: _278  and  _279
REMARK  114  A    between atoms: _278  and  _281
REMARK  115  A    between atoms: _281  and  _282
REMARK  116  A    between atoms: _282  and  _283
REMARK  117  A    between atoms: _283  and  _284
REMARK  118  A    between atoms: _284  and  _285
REMARK  119  A    between atoms: _289  and  _291
REMARK  120  A    between atoms: _291  and  _292
REMARK  121  A    between atoms: _291  and  _294
REMARK  122  A    between atoms: _294  and  _295
REMARK  123  A    between atoms: _298  and  _300
REMARK  124  A    between atoms: _300  and  _301
REMARK  125  A    between atoms: _300  and  _303
REMARK  126  A    between atoms: _303  and  _304
REMARK  127  A    between atoms: _307  and  _309
REMARK  128  A    between atoms: _309  and  _310
REMARK  129  A    between atoms: _309  and  _312
REMARK  130  A    between atoms: _312  and  _313
REMARK  131  A    between atoms: _313  and  _314
REMARK  132  A    between atoms: _316  and  _318
REMARK  133  A    between atoms: _318  and  _319
REMARK  134  A    between atoms: _318  and  _321
REMARK  135  A    between atoms: _321  and  _322
REMARK  136  A    between atoms: _322  and  _323
REMARK  137  A    between atoms: _325  and  _327
REMARK  138  A    between atoms: _327  and  _328
REMARK  139  A    between atoms: _327  and  _330
REMARK  140  A    between atoms: _330  and  _331
REMARK  141  A    between atoms: _336  and  _337
REMARK  142  A    between atoms: _339  and  _341
REMARK  143  A    between atoms: _341  and  _342
REMARK  144  A    between atoms: _341  and  _344
REMARK  145  A    between atoms: _344  and  _345
REMARK  146  A    between atoms: _350  and  _351
REMARK  147  A    between atoms: _353  and  _355
REMARK  148  A    between atoms: _355  and  _356
REMARK  149  A    between atoms: _355  and  _358
REMARK  150  A    between atoms: _361  and  _363
REMARK  151  A    between atoms: _363  and  _364
REMARK  152  A    between atoms: _367  and  _369
REMARK  153  A    between atoms: _369  and  _370
REMARK  154  A    between atoms: _372  and  _374
REMARK  155  A    between atoms: _374  and  _375
REMARK  156  A    between atoms: _374  and  _377
REMARK  157  A    between atoms: _377  and  _378
REMARK  158  A    between atoms: _381  and  _383
REMARK  159  A    between atoms: _383  and  _384
REMARK  160  A    between atoms: _383  and  _386
REMARK  161  A    between atoms: _389  and  _391
REMARK  162  A    between atoms: _391  and  _392
REMARK  163  A    between atoms: _394  and  _396
REMARK  164  A    between atoms: _396  and  _397
REMARK  165  A    between atoms: _399  and  _401
REMARK  166  A    between atoms: _401  and  _402
REMARK  167  A    between atoms: _401  and  _404
REMARK  168  A    between atoms: _404  and  _405
REMARK  169  A    between atoms: _408  and  _410
REMARK  170  A    between atoms: _410  and  _411
REMARK  171  A    between atoms: _410  and  _413
REMARK  172  A    between atoms: _413  and  _414
REMARK  173  A    between atoms: _417  and  _419
REMARK  174  A    between atoms: _419  and  _420
REMARK  175  A    between atoms: _419  and  _422
REMARK  176  A    between atoms: _422  and  _423
REMARK  177  A    between atoms: _429  and  _431
REMARK  178  A    between atoms: _431  and  _432
REMARK  179  A    between atoms: _431  and  _434
REMARK  180  A    between atoms: _434  and  _435
REMARK  181  A    between atoms: _435  and  _436
REMARK  182  A    between atoms: _438  and  _440
REMARK  183  A    between atoms: _440  and  _441
REMARK  184  A    between atoms: _440  and  _443
REMARK  185  A    between atoms: _443  and  _444
REMARK  186  A    between atoms: _450  and  _452
REMARK  187  A    between atoms: _452  and  _453
REMARK  188  A    between atoms: _452  and  _455
REMARK  189  A    between atoms: _455  and  _456
REMARK  190  A    between atoms: _459  and  _461
REMARK  191  A    between atoms: _461  and  _462
REMARK  192  A    between atoms: _461  and  _464
REMARK  193  A    between atoms: _464  and  _465
REMARK  194  A    between atoms: _465  and  _466
REMARK  195  A    between atoms: _471  and  _473
REMARK  196  A    between atoms: _473  and  _474
REMARK  197  A    between atoms: _473  and  _476
REMARK  198  A    between atoms: _476  and  _477
REMARK  199  A    between atoms: _477  and  _478
REMARK  200  A    between atoms: _478  and  _479
REMARK  201  A    between atoms: _479  and  _480
REMARK  202  A    between atoms: _484  and  _486
REMARK  203  A    between atoms: _486  and  _487
REMARK  204  A    between atoms: _486  and  _489
REMARK  205  A    between atoms: _489  and  _490
REMARK  206  A    between atoms: _493  and  _495
REMARK  207  A    between atoms: _495  and  _496
REMARK  208  A    between atoms: _495  and  _498
REMARK  209  A    between atoms: _498  and  _499
REMARK  210  A    between atoms: _504  and  _506
REMARK  211  A    between atoms: _506  and  _507
REMARK  212  A    between atoms: _506  and  _509
REMARK  213  A    between atoms: _509  and  _510
REMARK  214  A    between atoms: _513  and  _515
REMARK  215  A    between atoms: _515  and  _516
REMARK  216  A    between atoms: _515  and  _518
REMARK  217  A    between atoms: _518  and  _519
REMARK  218  A    between atoms: _519  and  _520
REMARK  219  A    between atoms: _520  and  _521
REMARK  220  A    between atoms: _530  and  _532
REMARK  221  A    between atoms: _532  and  _533
REMARK  222  A    between atoms: _532  and  _535
REMARK  223  A    between atoms: _535  and  _536
REMARK  224  A    between atoms: _539  and  _541
REMARK  225  A    between atoms: _541  and  _542
REMARK  226  A    between atoms: _541  and  _544
REMARK  227  A    between atoms: _544  and  _545
REMARK  228  A    between atoms: _545  and  _546
REMARK  229  A    between atoms: _549  and  _551
REMARK  230  A    between atoms: _551  and  _552
REMARK  231  A    between atoms: _551  and  _554
REMARK  232  A    between atoms: _554  and  _555
REMARK  233  A    between atoms: _561  and  _563
REMARK  234  A    between atoms: _563  and  _564
REMARK  235  A    between atoms: _563  and  _566
REMARK  236  A    between atoms: _566  and  _567
REMARK  237  A    between atoms: _571  and  _572
REMARK  238  A    between atoms: _577  and  _579
REMARK  239  A    between atoms: _579  and  _580
REMARK  240  A    between atoms: _579  and  _582
REMARK  241  A    between atoms: _582  and  _583
REMARK  242  A    between atoms: _583  and  _584
REMARK  243  A    between atoms: _589  and  _591
REMARK  244  A    between atoms: _591  and  _592
REMARK  245  A    between atoms: _591  and  _594
REMARK  246  A    between atoms: _597  and  _599
REMARK  247  A    between atoms: _599  and  _600
REMARK  248  A    between atoms: _599  and  _602
REMARK  249  A    between atoms: _602  and  _603
REMARK  250  A    between atoms: _603  and  _604
REMARK  251  A    between atoms: _606  and  _608
REMARK  252  A    between atoms: _608  and  _609
REMARK  253  A    between atoms: _612  and  _614
REMARK  254  A    between atoms: _614  and  _615
REMARK  255  A    between atoms: _614  and  _617
REMARK  256  A    between atoms: _617  and  _618
REMARK  257  A    between atoms: _621  and  _623
REMARK  258  A    between atoms: _623  and  _624
REMARK  259  A    between atoms: _627  and  _629
REMARK  260  A    between atoms: _629  and  _630
REMARK  261  A    between atoms: _629  and  _632
REMARK  262  A    between atoms: _632  and  _633
REMARK  263  A    between atoms: _636  and  _638
REMARK  264  A    between atoms: _638  and  _639
REMARK  265  A    between atoms: _638  and  _641
REMARK  266  A    between atoms: _641  and  _642
REMARK  267  A    between atoms: _645  and  _647
REMARK  268  A    between atoms: _647  and  _648
REMARK  269  A    between atoms: _647  and  _650
REMARK  270  A    between atoms: _650  and  _651
REMARK  271  A    between atoms: _654  and  _656
REMARK  272  A    between atoms: _656  and  _657
REMARK  273  A    between atoms: _656  and  _659
REMARK  274  A    between atoms: _659  and  _660
REMARK  275  A    between atoms: _660  and  _661
REMARK  276  A    between atoms: _666  and  _668
REMARK  277  A    between atoms: _668  and  _669
REMARK  278  A    between atoms: _672  and  _674
REMARK  279  A    between atoms: _674  and  _675
REMARK  280  A    between atoms: _674  and  _677
REMARK  281  A    between atoms: _680  and  _682
REMARK  282  A    between atoms: _682  and  _683
REMARK  283  A    between atoms: _682  and  _685
REMARK  284  A    between atoms: _685  and  _686
REMARK  285  A    between atoms: _689  and  _691
REMARK  286  A    between atoms: _691  and  _692
REMARK  287  A    between atoms: _691  and  _694
REMARK  288  A    between atoms: _694  and  _695
REMARK  289  A    between atoms: _695  and  _696
REMARK                            x       y       z     vdW  Elec       q    Type
REMARK                         _______ _______ _______ _____ _____    ______ ____
ROOT
ATOM      1  O   HOH     1      10.753  62.333  59.995  0.00  0.00    +0.000 OA
ENDROOT
TORSDOF 0
REMARK  Name = ../refined-set-2016/3vjc/3vjc_pocket.pdb
REMARK  289 active torsions:
REMARK  status: ('A' for Active; 'I' for Inactive)
REMARK    1  A    between atoms: _1  and  _3
REMARK    2  A    between atoms: _3  and  _4
REMARK    3  A    between atoms: _3  and  _6
REMARK    4  A    between atoms: _6  and  _7
REMARK    5  A    between atoms: _10  and  _12
REMARK    6  A    between atoms: _12  and  _13
REMARK    7  A    between atoms: _12  and  _15
REMARK    8  A    between atoms: _15  and  _16
REMARK    9  A    between atoms: _21  and  _23
REMARK   10  A    between atoms: _23  and  _24
REMARK   11  A    between atoms: _23  and  _26
REMARK   12  A    between atoms: _26  and  _27
REMARK   13  A    between atoms: _27  and  _28
REMARK   14  A    between atoms: _33  and  _35
REMARK   15  A    between atoms: _35  and  _36
REMARK   16  A    between atoms: _35  and  _38
REMARK   17  A    between atoms: _38  and  _39
REMARK   18  A    between atoms: _42  and  _44
REMARK   19  A    between atoms: _44  and  _45
REMARK   20  A    between atoms: _44  and  _47
REMARK   21  A    between atoms: _47  and  _48
REMARK   22  A    between atoms: _50  and  _52
REMARK   23  A    between atoms: _52  and  _53
REMARK   24  A    between atoms: _52  and  _55
REMARK   25  A    between atoms: _55  and  _56
REMARK   26  A    between atoms: _56  and  _57
REMARK   27  A    between atoms: _57  and  _58
REMARK   28  A    between atoms: _67  and  _69
REMARK   29  A    between atoms: _69  and  _70
REMARK   30  A    between atoms: _69  and  _72
REMARK   31  A    between atoms: _72  and  _73
REMARK   32  A    between atoms: _75  and  _77
REMARK   33  A    between atoms: _77  and  _78
REMARK   34  A    between atoms: _77  and  _80
REMARK   35  A    between atoms: _80  and  _81
REMARK   36  A    between atoms: _87  and  _89
REMARK   37  A    between atoms: _89  and  _90
REMARK   38  A    between atoms: _93  and  _95
REMARK   39  A    between atoms: _95  and  _96
REMARK   40  A    between atoms: _99  and  _101
REMARK   41  A    between atoms: _101  and  _102
REMARK   42  A    between atoms: _101  and  _104
REMARK   43  A    between atoms: _107  and  _109
REMARK   44  A    between atoms: _109  and  _110
REMARK   45  A    between atoms: _109  and  _112
REMARK   46  A    between atoms: _112  and  _113
REMARK   47  A    between atoms: _116  and  _118
REMARK   48  A    between atoms: _118  and  _119
REMARK   49  A    between atoms: _118  and  _121
REMARK   50  A    between atoms: _121  and  _122
REMARK   51  A    between atoms: _125  and  _127
REMARK   52  A    between atoms: _127  and  _128
REMARK   53  A    between atoms: _131  and  _133
REMARK   54  A    between atoms: _133  and  _134
REMARK   55  A    between atoms: _133  and  _136
REMARK   56  A    between atoms: _139  and  _141
REMARK   57  A    between atoms: _141  and  _142
REMARK   58  A    between atoms: _141  and  _144
REMARK   59  A    between atoms: _146  and  _148
REMARK   60  A    between atoms: _148  and  _149
REMARK   61  A    between atoms: _148  and  _151
REMARK   62  A    between atoms: _151  and  _152
REMARK   63  A    between atoms: _155  and  _157
REMARK   64  A    between atoms: _157  and  _158
REMARK   65  A    between atoms: _157  and  _160
REMARK   66  A    between atoms: _160  and  _161
REMARK   67  A    between atoms: _167  and  _169
REMARK   68  A    between atoms: _169  and  _170
REMARK   69  A    between atoms: _169  and  _172
REMARK   70  A    between atoms: _172  and  _173
REMARK   71  A    between atoms: _178  and  _179
REMARK   72  A    between atoms: _181  and  _183
REMARK   73  A    between atoms: _183  and  _184
REMARK   74  A    between atoms: _183  and  _186
REMARK   75  A    between atoms: _186  and  _187
REMARK   76  A    between atoms: _190  and  _192
REMARK   77  A    between atoms: _192  and  _193
REMARK   78  A    between atoms: _192  and  _195
REMARK   79  A    between atoms: _198  and  _200
REMARK   80  A    between atoms: _200  and  _201
REMARK   81  A    between atoms: _200  and  _203
REMARK   82  A    between atoms: _203  and  _204
REMARK   83  A    between atoms: _207  and  _209
REMARK   84  A    between atoms: _209  and  _210
REMARK   85  A    between atoms: _209  and  _212
REMARK   86  A    between atoms: _212  and  _213
REMARK   87  A    between atoms: _213  and  _214
REMARK   88  A    between atoms: _214  and  _215
REMARK   89  A    between atoms: _224  and  _226
REMARK   90  A    between atoms: _226  and  _227
REMARK   91  A    between atoms: _230  and  _232
REMARK   92  A    between atoms: _232  and  _233
REMARK   93  A    between atoms: _232  and  _235
REMARK   94  A    between atoms: _235  and  _236
REMARK   95  A    between atoms: _239  and  _241
REMARK   96  A    between atoms: _241  and  _242
REMARK   97  A    between atoms: _241  and  _244
REMARK   98  A    between atoms: _244  and  _245
REMARK   99  A    between atoms: _248  and  _250
REMARK  100  A    between atoms: _250  and  _251
REMARK  101  A    between atoms: _250  and  _253
REMARK  102  A    between atoms: _253  and  _254
REMARK  103  A    between atoms: _257  and  _259
REMARK  104  A    between atoms: _259  and  _260
REMARK  105  A    between atoms: _259  and  _262
REMARK  106  A    between atoms: _262  and  _263
REMARK  107  A    between atoms: _263  and  _264
REMARK  108  A    between atoms: _267  and  _269
REMARK  109  A    between atoms: _269  and  _270
REMARK  110  A    between atoms: _269  and  _272
REMARK  111  A    between atoms: _272  and  _273
REMARK  112  A    between atoms: _276  and  _278
REMARK  113  A    between atoms: _278  and  _279
REMARK  114  A    between atoms: _278  and  _281
REMARK  115  A    between atoms: _281  and  _282
REMARK  116  A    between atoms: _282  and  _283
REMARK  117  A    between atoms: _283  and  _284
REMARK  118  A    between atoms: _284  and  _285
REMARK  119  A    between atoms: _289  and  _291
REMARK  120  A    between atoms: _291  and  _292
REMARK  121  A    between atoms: _291  and  _294
REMARK  122  A    between atoms: _294  and  _295
REMARK  123  A    between atoms: _298  and  _300
REMARK  124  A    between atoms: _300  and  _301
REMARK  125  A    between atoms: _300  and  _303
REMARK  126  A    between atoms: _303  and  _304
REMARK  127  A    between atoms: _307  and  _309
REMARK  128  A    between atoms: _309  and  _310
REMARK  129  A    between atoms: _309  and  _312
REMARK  130  A    between atoms: _312  and  _313
REMARK  131  A    between atoms: _313  and  _314
REMARK  132  A    between atoms: _316  and  _318
REMARK  133  A    between atoms: _318  and  _319
REMARK  134  A    between atoms: _318  and  _321
REMARK  135  A    between atoms: _321  and  _322
REMARK  136  A    between atoms: _322  and  _323
REMARK  137  A    between atoms: _325  and  _327
REMARK  138  A    between atoms: _327  and  _328
REMARK  139  A    between atoms: _327  and  _330
REMARK  140  A    between atoms: _330  and  _331
REMARK  141  A    between atoms: _336  and  _337
REMARK  142  A    between atoms: _339  and  _341
REMARK  143  A    between atoms: _341  and  _342
REMARK  144  A    between atoms: _341  and  _344
REMARK  145  A    between atoms: _344  and  _345
REMARK  146  A    between atoms: _350  and  _351
REMARK  147  A    between atoms: _353  and  _355
REMARK  148  A    between atoms: _355  and  _356
REMARK  149  A    between atoms: _355  and  _358
REMARK  150  A    between atoms: _361  and  _363
REMARK  151  A    between atoms: _363  and  _364
REMARK  152  A    between atoms: _367  and  _369
REMARK  153  A    between atoms: _369  and  _370
REMARK  154  A    between atoms: _372  and  _374
REMARK  155  A    between atoms: _374  and  _375
REMARK  156  A    between atoms: _374  and  _377
REMARK  157  A    between atoms: _377  and  _378
REMARK  158  A    between atoms: _381  and  _383
REMARK  159  A    between atoms: _383  and  _384
REMARK  160  A    between atoms: _383  and  _386
REMARK  161  A    between atoms: _389  and  _391
REMARK  162  A    between atoms: _391  and  _392
REMARK  163  A    between atoms: _394  and  _396
REMARK  164  A    between atoms: _396  and  _397
REMARK  165  A    between atoms: _399  and  _401
REMARK  166  A    between atoms: _401  and  _402
REMARK  167  A    between atoms: _401  and  _404
REMARK  168  A    between atoms: _404  and  _405
REMARK  169  A    between atoms: _408  and  _410
REMARK  170  A    between atoms: _410  and  _411
REMARK  171  A    between atoms: _410  and  _413
REMARK  172  A    between atoms: _413  and  _414
REMARK  173  A    between atoms: _417  and  _419
REMARK  174  A    between atoms: _419  and  _420
REMARK  175  A    between atoms: _419  and  _422
REMARK  176  A    between atoms: _422  and  _423
REMARK  177  A    between atoms: _429  and  _431
REMARK  178  A    between atoms: _431  and  _432
REMARK  179  A    between atoms: _431  and  _434
REMARK  180  A    between atoms: _434  and  _435
REMARK  181  A    between atoms: _435  and  _436
REMARK  182  A    between atoms: _438  and  _440
REMARK  183  A    between atoms: _440  and  _441
REMARK  184  A    between atoms: _440  and  _443
REMARK  185  A    between atoms: _443  and  _444
REMARK  186  A    between atoms: _450  and  _452
REMARK  187  A    between atoms: _452  and  _453
REMARK  188  A    between atoms: _452  and  _455
REMARK  189  A    between atoms: _455  and  _456
REMARK  190  A    between atoms: _459  and  _461
REMARK  191  A    between atoms: _461  and  _462
REMARK  192  A    between atoms: _461  and  _464
REMARK  193  A    between atoms: _464  and  _465
REMARK  194  A    between atoms: _465  and  _466
REMARK  195  A    between atoms: _471  and  _473
REMARK  196  A    between atoms: _473  and  _474
REMARK  197  A    between atoms: _473  and  _476
REMARK  198  A    between atoms: _476  and  _477
REMARK  199  A    between atoms: _477  and  _478
REMARK  200  A    between atoms: _478  and  _479
REMARK  201  A    between atoms: _479  and  _480
REMARK  202  A    between atoms: _484  and  _486
REMARK  203  A    between atoms: _486  and  _487
REMARK  204  A    between atoms: _486  and  _489
REMARK  205  A    between atoms: _489  and  _490
REMARK  206  A    between atoms: _493  and  _495
REMARK  207  A    between atoms: _495  and  _496
REMARK  208  A    between atoms: _495  and  _498
REMARK  209  A    between atoms: _498  and  _499
REMARK  210  A    between atoms: _504  and  _506
REMARK  211  A    between atoms: _506  and  _507
REMARK  212  A    between atoms: _506  and  _509
REMARK  213  A    between atoms: _509  and  _510
REMARK  214  A    between atoms: _513  and  _515
REMARK  215  A    between atoms: _515  and  _516
REMARK  216  A    between atoms: _515  and  _518
REMARK  217  A    between atoms: _518  and  _519
REMARK  218  A    between atoms: _519  and  _520
REMARK  219  A    between atoms: _520  and  _521
REMARK  220  A    between atoms: _530  and  _532
REMARK  221  A    between atoms: _532  and  _533
REMARK  222  A    between atoms: _532  and  _535
REMARK  223  A    between atoms: _535  and  _536
REMARK  224  A    between atoms: _539  and  _541
REMARK  225  A    between atoms: _541  and  _542
REMARK  226  A    between atoms: _541  and  _544
REMARK  227  A    between atoms: _544  and  _545
REMARK  228  A    between atoms: _545  and  _546
REMARK  229  A    between atoms: _549  and  _551
REMARK  230  A    between atoms: _551  and  _552
REMARK  231  A    between atoms: _551  and  _554
REMARK  232  A    between atoms: _554  and  _555
REMARK  233  A    between atoms: _561  and  _563
REMARK  234  A    between atoms: _563  and  _564
REMARK  235  A    between atoms: _563  and  _566
REMARK  236  A    between atoms: _566  and  _567
REMARK  237  A    between atoms: _571  and  _572
REMARK  238  A    between atoms: _577  and  _579
REMARK  239  A    between atoms: _579  and  _580
REMARK  240  A    between atoms: _579  and  _582
REMARK  241  A    between atoms: _582  and  _583
REMARK  242  A    between atoms: _583  and  _584
REMARK  243  A    between atoms: _589  and  _591
REMARK  244  A    between atoms: _591  and  _592
REMARK  245  A    between atoms: _591  and  _594
REMARK  246  A    between atoms: _597  and  _599
REMARK  247  A    between atoms: _599  and  _600
REMARK  248  A    between atoms: _599  and  _602
REMARK  249  A    between atoms: _602  and  _603
REMARK  250  A    between atoms: _603  and  _604
REMARK  251  A    between atoms: _606  and  _608
REMARK  252  A    between atoms: _608  and  _609
REMARK  253  A    between atoms: _612  and  _614
REMARK  254  A    between atoms: _614  and  _615
REMARK  255  A    between atoms: _614  and  _617
REMARK  256  A    between atoms: _617  and  _618
REMARK  257  A    between atoms: _621  and  _623
REMARK  258  A    between atoms: _623  and  _624
REMARK  259  A    between atoms: _627  and  _629
REMARK  260  A    between atoms: _629  and  _630
REMARK  261  A    between atoms: _629  and  _632
REMARK  262  A    between atoms: _632  and  _633
REMARK  263  A    between atoms: _636  and  _638
REMARK  264  A    between atoms: _638  and  _639
REMARK  265  A    between atoms: _638  and  _641
REMARK  266  A    between atoms: _641  and  _642
REMARK  267  A    between atoms: _645  and  _647
REMARK  268  A    between atoms: _647  and  _648
REMARK  269  A    between atoms: _647  and  _650
REMARK  270  A    between atoms: _650  and  _651
REMARK  271  A    between atoms: _654  and  _656
REMARK  272  A    between atoms: _656  and  _657
REMARK  273  A    between atoms: _656  and  _659
REMARK  274  A    between atoms: _659  and  _660
REMARK  275  A    between atoms: _660  and  _661
REMARK  276  A    between atoms: _666  and  _668
REMARK  277  A    between atoms: _668  and  _669
REMARK  278  A    between atoms: _672  and  _674
REMARK  279  A    between atoms: _674  and  _675
REMARK  280  A    between atoms: _674  and  _677
REMARK  281  A    between atoms: _680  and  _682
REMARK  282  A    between atoms: _682  and  _683
REMARK  283  A    between atoms: _682  and  _685
REMARK  284  A    between atoms: _685  and  _686
REMARK  285  A    between atoms: _689  and  _691
REMARK  286  A    between atoms: _691  and  _692
REMARK  287  A    between atoms: _691  and  _694
REMARK  288  A    between atoms: _694  and  _695
REMARK  289  A    between atoms: _695  and  _696
REMARK                            x       y       z     vdW  Elec       q    Type
REMARK                         _______ _______ _______ _____ _____    ______ ____
ROOT
ATOM      1  O   HOH     1      15.803  50.555  57.197  0.00  0.00    +0.000 OA
ENDROOT
TORSDOF 0
REMARK  Name = ../refined-set-2016/3vjc/3vjc_pocket.pdb
REMARK  289 active torsions:
REMARK  status: ('A' for Active; 'I' for Inactive)
REMARK    1  A    between atoms: _1  and  _3
REMARK    2  A    between atoms: _3  and  _4
REMARK    3  A    between atoms: _3  and  _6
REMARK    4  A    between atoms: _6  and  _7
REMARK    5  A    between atoms: _10  and  _12
REMARK    6  A    between atoms: _12  and  _13
REMARK    7  A    between atoms: _12  and  _15
REMARK    8  A    between atoms: _15  and  _16
REMARK    9  A    between atoms: _21  and  _23
REMARK   10  A    between atoms: _23  and  _24
REMARK   11  A    between atoms: _23  and  _26
REMARK   12  A    between atoms: _26  and  _27
REMARK   13  A    between atoms: _27  and  _28
REMARK   14  A    between atoms: _33  and  _35
REMARK   15  A    between atoms: _35  and  _36
REMARK   16  A    between atoms: _35  and  _38
REMARK   17  A    between atoms: _38  and  _39
REMARK   18  A    between atoms: _42  and  _44
REMARK   19  A    between atoms: _44  and  _45
REMARK   20  A    between atoms: _44  and  _47
REMARK   21  A    between atoms: _47  and  _48
REMARK   22  A    between atoms: _50  and  _52
REMARK   23  A    between atoms: _52  and  _53
REMARK   24  A    between atoms: _52  and  _55
REMARK   25  A    between atoms: _55  and  _56
REMARK   26  A    between atoms: _56  and  _57
REMARK   27  A    between atoms: _57  and  _58
REMARK   28  A    between atoms: _67  and  _69
REMARK   29  A    between atoms: _69  and  _70
REMARK   30  A    between atoms: _69  and  _72
REMARK   31  A    between atoms: _72  and  _73
REMARK   32  A    between atoms: _75  and  _77
REMARK   33  A    between atoms: _77  and  _78
REMARK   34  A    between atoms: _77  and  _80
REMARK   35  A    between atoms: _80  and  _81
REMARK   36  A    between atoms: _87  and  _89
REMARK   37  A    between atoms: _89  and  _90
REMARK   38  A    between atoms: _93  and  _95
REMARK   39  A    between atoms: _95  and  _96
REMARK   40  A    between atoms: _99  and  _101
REMARK   41  A    between atoms: _101  and  _102
REMARK   42  A    between atoms: _101  and  _104
REMARK   43  A    between atoms: _107  and  _109
REMARK   44  A    between atoms: _109  and  _110
REMARK   45  A    between atoms: _109  and  _112
REMARK   46  A    between atoms: _112  and  _113
REMARK   47  A    between atoms: _116  and  _118
REMARK   48  A    between atoms: _118  and  _119
REMARK   49  A    between atoms: _118  and  _121
REMARK   50  A    between atoms: _121  and  _122
REMARK   51  A    between atoms: _125  and  _127
REMARK   52  A    between atoms: _127  and  _128
REMARK   53  A    between atoms: _131  and  _133
REMARK   54  A    between atoms: _133  and  _134
REMARK   55  A    between atoms: _133  and  _136
REMARK   56  A    between atoms: _139  and  _141
REMARK   57  A    between atoms: _141  and  _142
REMARK   58  A    between atoms: _141  and  _144
REMARK   59  A    between atoms: _146  and  _148
REMARK   60  A    between atoms: _148  and  _149
REMARK   61  A    between atoms: _148  and  _151
REMARK   62  A    between atoms: _151  and  _152
REMARK   63  A    between atoms: _155  and  _157
REMARK   64  A    between atoms: _157  and  _158
REMARK   65  A    between atoms: _157  and  _160
REMARK   66  A    between atoms: _160  and  _161
REMARK   67  A    between atoms: _167  and  _169
REMARK   68  A    between atoms: _169  and  _170
REMARK   69  A    between atoms: _169  and  _172
REMARK   70  A    between atoms: _172  and  _173
REMARK   71  A    between atoms: _178  and  _179
REMARK   72  A    between atoms: _181  and  _183
REMARK   73  A    between atoms: _183  and  _184
REMARK   74  A    between atoms: _183  and  _186
REMARK   75  A    between atoms: _186  and  _187
REMARK   76  A    between atoms: _190  and  _192
REMARK   77  A    between atoms: _192  and  _193
REMARK   78  A    between atoms: _192  and  _195
REMARK   79  A    between atoms: _198  and  _200
REMARK   80  A    between atoms: _200  and  _201
REMARK   81  A    between atoms: _200  and  _203
REMARK   82  A    between atoms: _203  and  _204
REMARK   83  A    between atoms: _207  and  _209
REMARK   84  A    between atoms: _209  and  _210
REMARK   85  A    between atoms: _209  and  _212
REMARK   86  A    between atoms: _212  and  _213
REMARK   87  A    between atoms: _213  and  _214
REMARK   88  A    between atoms: _214  and  _215
REMARK   89  A    between atoms: _224  and  _226
REMARK   90  A    between atoms: _226  and  _227
REMARK   91  A    between atoms: _230  and  _232
REMARK   92  A    between atoms: _232  and  _233
REMARK   93  A    between atoms: _232  and  _235
REMARK   94  A    between atoms: _235  and  _236
REMARK   95  A    between atoms: _239  and  _241
REMARK   96  A    between atoms: _241  and  _242
REMARK   97  A    between atoms: _241  and  _244
REMARK   98  A    between atoms: _244  and  _245
REMARK   99  A    between atoms: _248  and  _250
REMARK  100  A    between atoms: _250  and  _251
REMARK  101  A    between atoms: _250  and  _253
REMARK  102  A    between atoms: _253  and  _254
REMARK  103  A    between atoms: _257  and  _259
REMARK  104  A    between atoms: _259  and  _260
REMARK  105  A    between atoms: _259  and  _262
REMARK  106  A    between atoms: _262  and  _263
REMARK  107  A    between atoms: _263  and  _264
REMARK  108  A    between atoms: _267  and  _269
REMARK  109  A    between atoms: _269  and  _270
REMARK  110  A    between atoms: _269  and  _272
REMARK  111  A    between atoms: _272  and  _273
REMARK  112  A    between atoms: _276  and  _278
REMARK  113  A    between atoms: _278  and  _279
REMARK  114  A    between atoms: _278  and  _281
REMARK  115  A    between atoms: _281  and  _282
REMARK  116  A    between atoms: _282  and  _283
REMARK  117  A    between atoms: _283  and  _284
REMARK  118  A    between atoms: _284  and  _285
REMARK  119  A    between atoms: _289  and  _291
REMARK  120  A    between atoms: _291  and  _292
REMARK  121  A    between atoms: _291  and  _294
REMARK  122  A    between atoms: _294  and  _295
REMARK  123  A    between atoms: _298  and  _300
REMARK  124  A    between atoms: _300  and  _301
REMARK  125  A    between atoms: _300  and  _303
REMARK  126  A    between atoms: _303  and  _304
REMARK  127  A    between atoms: _307  and  _309
REMARK  128  A    between atoms: _309  and  _310
REMARK  129  A    between atoms: _309  and  _312
REMARK  130  A    between atoms: _312  and  _313
REMARK  131  A    between atoms: _313  and  _314
REMARK  132  A    between atoms: _316  and  _318
REMARK  133  A    between atoms: _318  and  _319
REMARK  134  A    between atoms: _318  and  _321
REMARK  135  A    between atoms: _321  and  _322
REMARK  136  A    between atoms: _322  and  _323
REMARK  137  A    between atoms: _325  and  _327
REMARK  138  A    between atoms: _327  and  _328
REMARK  139  A    between atoms: _327  and  _330
REMARK  140  A    between atoms: _330  and  _331
REMARK  141  A    between atoms: _336  and  _337
REMARK  142  A    between atoms: _339  and  _341
REMARK  143  A    between atoms: _341  and  _342
REMARK  144  A    between atoms: _341  and  _344
REMARK  145  A    between atoms: _344  and  _345
REMARK  146  A    between atoms: _350  and  _351
REMARK  147  A    between atoms: _353  and  _355
REMARK  148  A    between atoms: _355  and  _356
REMARK  149  A    between atoms: _355  and  _358
REMARK  150  A    between atoms: _361  and  _363
REMARK  151  A    between atoms: _363  and  _364
REMARK  152  A    between atoms: _367  and  _369
REMARK  153  A    between atoms: _369  and  _370
REMARK  154  A    between atoms: _372  and  _374
REMARK  155  A    between atoms: _374  and  _375
REMARK  156  A    between atoms: _374  and  _377
REMARK  157  A    between atoms: _377  and  _378
REMARK  158  A    between atoms: _381  and  _383
REMARK  159  A    between atoms: _383  and  _384
REMARK  160  A    between atoms: _383  and  _386
REMARK  161  A    between atoms: _389  and  _391
REMARK  162  A    between atoms: _391  and  _392
REMARK  163  A    between atoms: _394  and  _396
REMARK  164  A    between atoms: _396  and  _397
REMARK  165  A    between atoms: _399  and  _401
REMARK  166  A    between atoms: _401  and  _402
REMARK  167  A    between atoms: _401  and  _404
REMARK  168  A    between atoms: _404  and  _405
REMARK  169  A    between atoms: _408  and  _410
REMARK  170  A    between atoms: _410  and  _411
REMARK  171  A    between atoms: _410  and  _413
REMARK  172  A    between atoms: _413  and  _414
REMARK  173  A    between atoms: _417  and  _419
REMARK  174  A    between atoms: _419  and  _420
REMARK  175  A    between atoms: _419  and  _422
REMARK  176  A    between atoms: _422  and  _423
REMARK  177  A    between atoms: _429  and  _431
REMARK  178  A    between atoms: _431  and  _432
REMARK  179  A    between atoms: _431  and  _434
REMARK  180  A    between atoms: _434  and  _435
REMARK  181  A    between atoms: _435  and  _436
REMARK  182  A    between atoms: _438  and  _440
REMARK  183  A    between atoms: _440  and  _441
REMARK  184  A    between atoms: _440  and  _443
REMARK  185  A    between atoms: _443  and  _444
REMARK  186  A    between atoms: _450  and  _452
REMARK  187  A    between atoms: _452  and  _453
REMARK  188  A    between atoms: _452  and  _455
REMARK  189  A    between atoms: _455  and  _456
REMARK  190  A    between atoms: _459  and  _461
REMARK  191  A    between atoms: _461  and  _462
REMARK  192  A    between atoms: _461  and  _464
REMARK  193  A    between atoms: _464  and  _465
REMARK  194  A    between atoms: _465  and  _466
REMARK  195  A    between atoms: _471  and  _473
REMARK  196  A    between atoms: _473  and  _474
REMARK  197  A    between atoms: _473  and  _476
REMARK  198  A    between atoms: _476  and  _477
REMARK  199  A    between atoms: _477  and  _478
REMARK  200  A    between atoms: _478  and  _479
REMARK  201  A    between atoms: _479  and  _480
REMARK  202  A    between atoms: _484  and  _486
REMARK  203  A    between atoms: _486  and  _487
REMARK  204  A    between atoms: _486  and  _489
REMARK  205  A    between atoms: _489  and  _490
REMARK  206  A    between atoms: _493  and  _495
REMARK  207  A    between atoms: _495  and  _496
REMARK  208  A    between atoms: _495  and  _498
REMARK  209  A    between atoms: _498  and  _499
REMARK  210  A    between atoms: _504  and  _506
REMARK  211  A    between atoms: _506  and  _507
REMARK  212  A    between atoms: _506  and  _509
REMARK  213  A    between atoms: _509  and  _510
REMARK  214  A    between atoms: _513  and  _515
REMARK  215  A    between atoms: _515  and  _516
REMARK  216  A    between atoms: _515  and  _518
REMARK  217  A    between atoms: _518  and  _519
REMARK  218  A    between atoms: _519  and  _520
REMARK  219  A    between atoms: _520  and  _521
REMARK  220  A    between atoms: _530  and  _532
REMARK  221  A    between atoms: _532  and  _533
REMARK  222  A    between atoms: _532  and  _535
REMARK  223  A    between atoms: _535  and  _536
REMARK  224  A    between atoms: _539  and  _541
REMARK  225  A    between atoms: _541  and  _542
REMARK  226  A    between atoms: _541  and  _544
REMARK  227  A    between atoms: _544  and  _545
REMARK  228  A    between atoms: _545  and  _546
REMARK  229  A    between atoms: _549  and  _551
REMARK  230  A    between atoms: _551  and  _552
REMARK  231  A    between atoms: _551  and  _554
REMARK  232  A    between atoms: _554  and  _555
REMARK  233  A    between atoms: _561  and  _563
REMARK  234  A    between atoms: _563  and  _564
REMARK  235  A    between atoms: _563  and  _566
REMARK  236  A    between atoms: _566  and  _567
REMARK  237  A    between atoms: _571  and  _572
REMARK  238  A    between atoms: _577  and  _579
REMARK  239  A    between atoms: _579  and  _580
REMARK  240  A    between atoms: _579  and  _582
REMARK  241  A    between atoms: _582  and  _583
REMARK  242  A    between atoms: _583  and  _584
REMARK  243  A    between atoms: _589  and  _591
REMARK  244  A    between atoms: _591  and  _592
REMARK  245  A    between atoms: _591  and  _594
REMARK  246  A    between atoms: _597  and  _599
REMARK  247  A    between atoms: _599  and  _600
REMARK  248  A    between atoms: _599  and  _602
REMARK  249  A    between atoms: _602  and  _603
REMARK  250  A    between atoms: _603  and  _604
REMARK  251  A    between atoms: _606  and  _608
REMARK  252  A    between atoms: _608  and  _609
REMARK  253  A    between atoms: _612  and  _614
REMARK  254  A    between atoms: _614  and  _615
REMARK  255  A    between atoms: _614  and  _617
REMARK  256  A    between atoms: _617  and  _618
REMARK  257  A    between atoms: _621  and  _623
REMARK  258  A    between atoms: _623  and  _624
REMARK  259  A    between atoms: _627  and  _629
REMARK  260  A    between atoms: _629  and  _630
REMARK  261  A    between atoms: _629  and  _632
REMARK  262  A    between atoms: _632  and  _633
REMARK  263  A    between atoms: _636  and  _638
REMARK  264  A    between atoms: _638  and  _639
REMARK  265  A    between atoms: _638  and  _641
REMARK  266  A    between atoms: _641  and  _642
REMARK  267  A    between atoms: _645  and  _647
REMARK  268  A    between atoms: _647  and  _648
REMARK  269  A    between atoms: _647  and  _650
REMARK  270  A    between atoms: _650  and  _651
REMARK  271  A    between atoms: _654  and  _656
REMARK  272  A    between atoms: _656  and  _657
REMARK  273  A    between atoms: _656  and  _659
REMARK  274  A    between atoms: _659  and  _660
REMARK  275  A    between atoms: _660  and  _661
REMARK  276  A    between atoms: _666  and  _668
REMARK  277  A    between atoms: _668  and  _669
REMARK  278  A    between atoms: _672  and  _674
REMARK  279  A    between atoms: _674  and  _675
REMARK  280  A    between atoms: _674  and  _677
REMARK  281  A    between atoms: _680  and  _682
REMARK  282  A    between atoms: _682  and  _683
REMARK  283  A    between atoms: _682  and  _685
REMARK  284  A    between atoms: _685  and  _686
REMARK  285  A    between atoms: _689  and  _691
REMARK  286  A    between atoms: _691  and  _692
REMARK  287  A    between atoms: _691  and  _694
REMARK  288  A    between atoms: _694  and  _695
REMARK  289  A    between atoms: _695  and  _696
REMARK                            x       y       z     vdW  Elec       q    Type
REMARK                         _______ _______ _______ _____ _____    ______ ____
ROOT
ATOM      1  O   HOH     1      15.873  69.490  58.511  0.00  0.00    +0.000 OA
ENDROOT
TORSDOF 0
REMARK  Name = ../refined-set-2016/3vjc/3vjc_pocket.pdb
REMARK  289 active torsions:
REMARK  status: ('A' for Active; 'I' for Inactive)
REMARK    1  A    between atoms: _1  and  _3
REMARK    2  A    between atoms: _3  and  _4
REMARK    3  A    between atoms: _3  and  _6
REMARK    4  A    between atoms: _6  and  _7
REMARK    5  A    between atoms: _10  and  _12
REMARK    6  A    between atoms: _12  and  _13
REMARK    7  A    between atoms: _12  and  _15
REMARK    8  A    between atoms: _15  and  _16
REMARK    9  A    between atoms: _21  and  _23
REMARK   10  A    between atoms: _23  and  _24
REMARK   11  A    between atoms: _23  and  _26
REMARK   12  A    between atoms: _26  and  _27
REMARK   13  A    between atoms: _27  and  _28
REMARK   14  A    between atoms: _33  and  _35
REMARK   15  A    between atoms: _35  and  _36
REMARK   16  A    between atoms: _35  and  _38
REMARK   17  A    between atoms: _38  and  _39
REMARK   18  A    between atoms: _42  and  _44
REMARK   19  A    between atoms: _44  and  _45
REMARK   20  A    between atoms: _44  and  _47
REMARK   21  A    between atoms: _47  and  _48
REMARK   22  A    between atoms: _50  and  _52
REMARK   23  A    between atoms: _52  and  _53
REMARK   24  A    between atoms: _52  and  _55
REMARK   25  A    between atoms: _55  and  _56
REMARK   26  A    between atoms: _56  and  _57
REMARK   27  A    between atoms: _57  and  _58
REMARK   28  A    between atoms: _67  and  _69
REMARK   29  A    between atoms: _69  and  _70
REMARK   30  A    between atoms: _69  and  _72
REMARK   31  A    between atoms: _72  and  _73
REMARK   32  A    between atoms: _75  and  _77
REMARK   33  A    between atoms: _77  and  _78
REMARK   34  A    between atoms: _77  and  _80
REMARK   35  A    between atoms: _80  and  _81
REMARK   36  A    between atoms: _87  and  _89
REMARK   37  A    between atoms: _89  and  _90
REMARK   38  A    between atoms: _93  and  _95
REMARK   39  A    between atoms: _95  and  _96
REMARK   40  A    between atoms: _99  and  _101
REMARK   41  A    between atoms: _101  and  _102
REMARK   42  A    between atoms: _101  and  _104
REMARK   43  A    between atoms: _107  and  _109
REMARK   44  A    between atoms: _109  and  _110
REMARK   45  A    between atoms: _109  and  _112
REMARK   46  A    between atoms: _112  and  _113
REMARK   47  A    between atoms: _116  and  _118
REMARK   48  A    between atoms: _118  and  _119
REMARK   49  A    between atoms: _118  and  _121
REMARK   50  A    between atoms: _121  and  _122
REMARK   51  A    between atoms: _125  and  _127
REMARK   52  A    between atoms: _127  and  _128
REMARK   53  A    between atoms: _131  and  _133
REMARK   54  A    between atoms: _133  and  _134
REMARK   55  A    between atoms: _133  and  _136
REMARK   56  A    between atoms: _139  and  _141
REMARK   57  A    between atoms: _141  and  _142
REMARK   58  A    between atoms: _141  and  _144
REMARK   59  A    between atoms: _146  and  _148
REMARK   60  A    between atoms: _148  and  _149
REMARK   61  A    between atoms: _148  and  _151
REMARK   62  A    between atoms: _151  and  _152
REMARK   63  A    between atoms: _155  and  _157
REMARK   64  A    between atoms: _157  and  _158
REMARK   65  A    between atoms: _157  and  _160
REMARK   66  A    between atoms: _160  and  _161
REMARK   67  A    between atoms: _167  and  _169
REMARK   68  A    between atoms: _169  and  _170
REMARK   69  A    between atoms: _169  and  _172
REMARK   70  A    between atoms: _172  and  _173
REMARK   71  A    between atoms: _178  and  _179
REMARK   72  A    between atoms: _181  and  _183
REMARK   73  A    between atoms: _183  and  _184
REMARK   74  A    between atoms: _183  and  _186
REMARK   75  A    between atoms: _186  and  _187
REMARK   76  A    between atoms: _190  and  _192
REMARK   77  A    between atoms: _192  and  _193
REMARK   78  A    between atoms: _192  and  _195
REMARK   79  A    between atoms: _198  and  _200
REMARK   80  A    between atoms: _200  and  _201
REMARK   81  A    between atoms: _200  and  _203
REMARK   82  A    between atoms: _203  and  _204
REMARK   83  A    between atoms: _207  and  _209
REMARK   84  A    between atoms: _209  and  _210
REMARK   85  A    between atoms: _209  and  _212
REMARK   86  A    between atoms: _212  and  _213
REMARK   87  A    between atoms: _213  and  _214
REMARK   88  A    between atoms: _214  and  _215
REMARK   89  A    between atoms: _224  and  _226
REMARK   90  A    between atoms: _226  and  _227
REMARK   91  A    between atoms: _230  and  _232
REMARK   92  A    between atoms: _232  and  _233
REMARK   93  A    between atoms: _232  and  _235
REMARK   94  A    between atoms: _235  and  _236
REMARK   95  A    between atoms: _239  and  _241
REMARK   96  A    between atoms: _241  and  _242
REMARK   97  A    between atoms: _241  and  _244
REMARK   98  A    between atoms: _244  and  _245
REMARK   99  A    between atoms: _248  and  _250
REMARK  100  A    between atoms: _250  and  _251
REMARK  101  A    between atoms: _250  and  _253
REMARK  102  A    between atoms: _253  and  _254
REMARK  103  A    between atoms: _257  and  _259
REMARK  104  A    between atoms: _259  and  _260
REMARK  105  A    between atoms: _259  and  _262
REMARK  106  A    between atoms: _262  and  _263
REMARK  107  A    between atoms: _263  and  _264
REMARK  108  A    between atoms: _267  and  _269
REMARK  109  A    between atoms: _269  and  _270
REMARK  110  A    between atoms: _269  and  _272
REMARK  111  A    between atoms: _272  and  _273
REMARK  112  A    between atoms: _276  and  _278
REMARK  113  A    between atoms: _278  and  _279
REMARK  114  A    between atoms: _278  and  _281
REMARK  115  A    between atoms: _281  and  _282
REMARK  116  A    between atoms: _282  and  _283
REMARK  117  A    between atoms: _283  and  _284
REMARK  118  A    between atoms: _284  and  _285
REMARK  119  A    between atoms: _289  and  _291
REMARK  120  A    between atoms: _291  and  _292
REMARK  121  A    between atoms: _291  and  _294
REMARK  122  A    between atoms: _294  and  _295
REMARK  123  A    between atoms: _298  and  _300
REMARK  124  A    between atoms: _300  and  _301
REMARK  125  A    between atoms: _300  and  _303
REMARK  126  A    between atoms: _303  and  _304
REMARK  127  A    between atoms: _307  and  _309
REMARK  128  A    between atoms: _309  and  _310
REMARK  129  A    between atoms: _309  and  _312
REMARK  130  A    between atoms: _312  and  _313
REMARK  131  A    between atoms: _313  and  _314
REMARK  132  A    between atoms: _316  and  _318
REMARK  133  A    between atoms: _318  and  _319
REMARK  134  A    between atoms: _318  and  _321
REMARK  135  A    between atoms: _321  and  _322
REMARK  136  A    between atoms: _322  and  _323
REMARK  137  A    between atoms: _325  and  _327
REMARK  138  A    between atoms: _327  and  _328
REMARK  139  A    between atoms: _327  and  _330
REMARK  140  A    between atoms: _330  and  _331
REMARK  141  A    between atoms: _336  and  _337
REMARK  142  A    between atoms: _339  and  _341
REMARK  143  A    between atoms: _341  and  _342
REMARK  144  A    between atoms: _341  and  _344
REMARK  145  A    between atoms: _344  and  _345
REMARK  146  A    between atoms: _350  and  _351
REMARK  147  A    between atoms: _353  and  _355
REMARK  148  A    between atoms: _355  and  _356
REMARK  149  A    between atoms: _355  and  _358
REMARK  150  A    between atoms: _361  and  _363
REMARK  151  A    between atoms: _363  and  _364
REMARK  152  A    between atoms: _367  and  _369
REMARK  153  A    between atoms: _369  and  _370
REMARK  154  A    between atoms: _372  and  _374
REMARK  155  A    between atoms: _374  and  _375
REMARK  156  A    between atoms: _374  and  _377
REMARK  157  A    between atoms: _377  and  _378
REMARK  158  A    between atoms: _381  and  _383
REMARK  159  A    between atoms: _383  and  _384
REMARK  160  A    between atoms: _383  and  _386
REMARK  161  A    between atoms: _389  and  _391
REMARK  162  A    between atoms: _391  and  _392
REMARK  163  A    between atoms: _394  and  _396
REMARK  164  A    between atoms: _396  and  _397
REMARK  165  A    between atoms: _399  and  _401
REMARK  166  A    between atoms: _401  and  _402
REMARK  167  A    between atoms: _401  and  _404
REMARK  168  A    between atoms: _404  and  _405
REMARK  169  A    between atoms: _408  and  _410
REMARK  170  A    between atoms: _410  and  _411
REMARK  171  A    between atoms: _410  and  _413
REMARK  172  A    between atoms: _413  and  _414
REMARK  173  A    between atoms: _417  and  _419
REMARK  174  A    between atoms: _419  and  _420
REMARK  175  A    between atoms: _419  and  _422
REMARK  176  A    between atoms: _422  and  _423
REMARK  177  A    between atoms: _429  and  _431
REMARK  178  A    between atoms: _431  and  _432
REMARK  179  A    between atoms: _431  and  _434
REMARK  180  A    between atoms: _434  and  _435
REMARK  181  A    between atoms: _435  and  _436
REMARK  182  A    between atoms: _438  and  _440
REMARK  183  A    between atoms: _440  and  _441
REMARK  184  A    between atoms: _440  and  _443
REMARK  185  A    between atoms: _443  and  _444
REMARK  186  A    between atoms: _450  and  _452
REMARK  187  A    between atoms: _452  and  _453
REMARK  188  A    between atoms: _452  and  _455
REMARK  189  A    between atoms: _455  and  _456
REMARK  190  A    between atoms: _459  and  _461
REMARK  191  A    between atoms: _461  and  _462
REMARK  192  A    between atoms: _461  and  _464
REMARK  193  A    between atoms: _464  and  _465
REMARK  194  A    between atoms: _465  and  _466
REMARK  195  A    between atoms: _471  and  _473
REMARK  196  A    between atoms: _473  and  _474
REMARK  197  A    between atoms: _473  and  _476
REMARK  198  A    between atoms: _476  and  _477
REMARK  199  A    between atoms: _477  and  _478
REMARK  200  A    between atoms: _478  and  _479
REMARK  201  A    between atoms: _479  and  _480
REMARK  202  A    between atoms: _484  and  _486
REMARK  203  A    between atoms: _486  and  _487
REMARK  204  A    between atoms: _486  and  _489
REMARK  205  A    between atoms: _489  and  _490
REMARK  206  A    between atoms: _493  and  _495
REMARK  207  A    between atoms: _495  and  _496
REMARK  208  A    between atoms: _495  and  _498
REMARK  209  A    between atoms: _498  and  _499
REMARK  210  A    between atoms: _504  and  _506
REMARK  211  A    between atoms: _506  and  _507
REMARK  212  A    between atoms: _506  and  _509
REMARK  213  A    between atoms: _509  and  _510
REMARK  214  A    between atoms: _513  and  _515
REMARK  215  A    between atoms: _515  and  _516
REMARK  216  A    between atoms: _515  and  _518
REMARK  217  A    between atoms: _518  and  _519
REMARK  218  A    between atoms: _519  and  _520
REMARK  219  A    between atoms: _520  and  _521
REMARK  220  A    between atoms: _530  and  _532
REMARK  221  A    between atoms: _532  and  _533
REMARK  222  A    between atoms: _532  and  _535
REMARK  223  A    between atoms: _535  and  _536
REMARK  224  A    between atoms: _539  and  _541
REMARK  225  A    between atoms: _541  and  _542
REMARK  226  A    between atoms: _541  and  _544
REMARK  227  A    between atoms: _544  and  _545
REMARK  228  A    between atoms: _545  and  _546
REMARK  229  A    between atoms: _549  and  _551
REMARK  230  A    between atoms: _551  and  _552
REMARK  231  A    between atoms: _551  and  _554
REMARK  232  A    between atoms: _554  and  _555
REMARK  233  A    between atoms: _561  and  _563
REMARK  234  A    between atoms: _563  and  _564
REMARK  235  A    between atoms: _563  and  _566
REMARK  236  A    between atoms: _566  and  _567
REMARK  237  A    between atoms: _571  and  _572
REMARK  238  A    between atoms: _577  and  _579
REMARK  239  A    between atoms: _579  and  _580
REMARK  240  A    between atoms: _579  and  _582
REMARK  241  A    between atoms: _582  and  _583
REMARK  242  A    between atoms: _583  and  _584
REMARK  243  A    between atoms: _589  and  _591
REMARK  244  A    between atoms: _591  and  _592
REMARK  245  A    between atoms: _591  and  _594
REMARK  246  A    between atoms: _597  and  _599
REMARK  247  A    between atoms: _599  and  _600
REMARK  248  A    between atoms: _599  and  _602
REMARK  249  A    between atoms: _602  and  _603
REMARK  250  A    between atoms: _603  and  _604
REMARK  251  A    between atoms: _606  and  _608
REMARK  252  A    between atoms: _608  and  _609
REMARK  253  A    between atoms: _612  and  _614
REMARK  254  A    between atoms: _614  and  _615
REMARK  255  A    between atoms: _614  and  _617
REMARK  256  A    between atoms: _617  and  _618
REMARK  257  A    between atoms: _621  and  _623
REMARK  258  A    between atoms: _623  and  _624
REMARK  259  A    between atoms: _627  and  _629
REMARK  260  A    between atoms: _629  and  _630
REMARK  261  A    between atoms: _629  and  _632
REMARK  262  A    between atoms: _632  and  _633
REMARK  263  A    between atoms: _636  and  _638
REMARK  264  A    between atoms: _638  and  _639
REMARK  265  A    between atoms: _638  and  _641
REMARK  266  A    between atoms: _641  and  _642
REMARK  267  A    between atoms: _645  and  _647
REMARK  268  A    between atoms: _647  and  _648
REMARK  269  A    between atoms: _647  and  _650
REMARK  270  A    between atoms: _650  and  _651
REMARK  271  A    between atoms: _654  and  _656
REMARK  272  A    between atoms: _656  and  _657
REMARK  273  A    between atoms: _656  and  _659
REMARK  274  A    between atoms: _659  and  _660
REMARK  275  A    between atoms: _660  and  _661
REMARK  276  A    between atoms: _666  and  _668
REMARK  277  A    between atoms: _668  and  _669
REMARK  278  A    between atoms: _672  and  _674
REMARK  279  A    between atoms: _674  and  _675
REMARK  280  A    between atoms: _674  and  _677
REMARK  281  A    between atoms: _680  and  _682
REMARK  282  A    between atoms: _682  and  _683
REMARK  283  A    between atoms: _682  and  _685
REMARK  284  A    between atoms: _685  and  _686
REMARK  285  A    between atoms: _689  and  _691
REMARK  286  A    between atoms: _691  and  _692
REMARK  287  A    between atoms: _691  and  _694
REMARK  288  A    between atoms: _694  and  _695
REMARK  289  A    between atoms: _695  and  _696
REMARK                            x       y       z     vdW  Elec       q    Type
REMARK                         _______ _______ _______ _____ _____    ______ ____
ROOT
ATOM      1  O   HOH     1      18.062  69.245  62.312  0.00  0.00    +0.000 OA
ENDROOT
TORSDOF 0
REMARK  Name = ../refined-set-2016/3vjc/3vjc_pocket.pdb
REMARK  289 active torsions:
REMARK  status: ('A' for Active; 'I' for Inactive)
REMARK    1  A    between atoms: _1  and  _3
REMARK    2  A    between atoms: _3  and  _4
REMARK    3  A    between atoms: _3  and  _6
REMARK    4  A    between atoms: _6  and  _7
REMARK    5  A    between atoms: _10  and  _12
REMARK    6  A    between atoms: _12  and  _13
REMARK    7  A    between atoms: _12  and  _15
REMARK    8  A    between atoms: _15  and  _16
REMARK    9  A    between atoms: _21  and  _23
REMARK   10  A    between atoms: _23  and  _24
REMARK   11  A    between atoms: _23  and  _26
REMARK   12  A    between atoms: _26  and  _27
REMARK   13  A    between atoms: _27  and  _28
REMARK   14  A    between atoms: _33  and  _35
REMARK   15  A    between atoms: _35  and  _36
REMARK   16  A    between atoms: _35  and  _38
REMARK   17  A    between atoms: _38  and  _39
REMARK   18  A    between atoms: _42  and  _44
REMARK   19  A    between atoms: _44  and  _45
REMARK   20  A    between atoms: _44  and  _47
REMARK   21  A    between atoms: _47  and  _48
REMARK   22  A    between atoms: _50  and  _52
REMARK   23  A    between atoms: _52  and  _53
REMARK   24  A    between atoms: _52  and  _55
REMARK   25  A    between atoms: _55  and  _56
REMARK   26  A    between atoms: _56  and  _57
REMARK   27  A    between atoms: _57  and  _58
REMARK   28  A    between atoms: _67  and  _69
REMARK   29  A    between atoms: _69  and  _70
REMARK   30  A    between atoms: _69  and  _72
REMARK   31  A    between atoms: _72  and  _73
REMARK   32  A    between atoms: _75  and  _77
REMARK   33  A    between atoms: _77  and  _78
REMARK   34  A    between atoms: _77  and  _80
REMARK   35  A    between atoms: _80  and  _81
REMARK   36  A    between atoms: _87  and  _89
REMARK   37  A    between atoms: _89  and  _90
REMARK   38  A    between atoms: _93  and  _95
REMARK   39  A    between atoms: _95  and  _96
REMARK   40  A    between atoms: _99  and  _101
REMARK   41  A    between atoms: _101  and  _102
REMARK   42  A    between atoms: _101  and  _104
REMARK   43  A    between atoms: _107  and  _109
REMARK   44  A    between atoms: _109  and  _110
REMARK   45  A    between atoms: _109  and  _112
REMARK   46  A    between atoms: _112  and  _113
REMARK   47  A    between atoms: _116  and  _118
REMARK   48  A    between atoms: _118  and  _119
REMARK   49  A    between atoms: _118  and  _121
REMARK   50  A    between atoms: _121  and  _122
REMARK   51  A    between atoms: _125  and  _127
REMARK   52  A    between atoms: _127  and  _128
REMARK   53  A    between atoms: _131  and  _133
REMARK   54  A    between atoms: _133  and  _134
REMARK   55  A    between atoms: _133  and  _136
REMARK   56  A    between atoms: _139  and  _141
REMARK   57  A    between atoms: _141  and  _142
REMARK   58  A    between atoms: _141  and  _144
REMARK   59  A    between atoms: _146  and  _148
REMARK   60  A    between atoms: _148  and  _149
REMARK   61  A    between atoms: _148  and  _151
REMARK   62  A    between atoms: _151  and  _152
REMARK   63  A    between atoms: _155  and  _157
REMARK   64  A    between atoms: _157  and  _158
REMARK   65  A    between atoms: _157  and  _160
REMARK   66  A    between atoms: _160  and  _161
REMARK   67  A    between atoms: _167  and  _169
REMARK   68  A    between atoms: _169  and  _170
REMARK   69  A    between atoms: _169  and  _172
REMARK   70  A    between atoms: _172  and  _173
REMARK   71  A    between atoms: _178  and  _179
REMARK   72  A    between atoms: _181  and  _183
REMARK   73  A    between atoms: _183  and  _184
REMARK   74  A    between atoms: _183  and  _186
REMARK   75  A    between atoms: _186  and  _187
REMARK   76  A    between atoms: _190  and  _192
REMARK   77  A    between atoms: _192  and  _193
REMARK   78  A    between atoms: _192  and  _195
REMARK   79  A    between atoms: _198  and  _200
REMARK   80  A    between atoms: _200  and  _201
REMARK   81  A    between atoms: _200  and  _203
REMARK   82  A    between atoms: _203  and  _204
REMARK   83  A    between atoms: _207  and  _209
REMARK   84  A    between atoms: _209  and  _210
REMARK   85  A    between atoms: _209  and  _212
REMARK   86  A    between atoms: _212  and  _213
REMARK   87  A    between atoms: _213  and  _214
REMARK   88  A    between atoms: _214  and  _215
REMARK   89  A    between atoms: _224  and  _226
REMARK   90  A    between atoms: _226  and  _227
REMARK   91  A    between atoms: _230  and  _232
REMARK   92  A    between atoms: _232  and  _233
REMARK   93  A    between atoms: _232  and  _235
REMARK   94  A    between atoms: _235  and  _236
REMARK   95  A    between atoms: _239  and  _241
REMARK   96  A    between atoms: _241  and  _242
REMARK   97  A    between atoms: _241  and  _244
REMARK   98  A    between atoms: _244  and  _245
REMARK   99  A    between atoms: _248  and  _250
REMARK  100  A    between atoms: _250  and  _251
REMARK  101  A    between atoms: _250  and  _253
REMARK  102  A    between atoms: _253  and  _254
REMARK  103  A    between atoms: _257  and  _259
REMARK  104  A    between atoms: _259  and  _260
REMARK  105  A    between atoms: _259  and  _262
REMARK  106  A    between atoms: _262  and  _263
REMARK  107  A    between atoms: _263  and  _264
REMARK  108  A    between atoms: _267  and  _269
REMARK  109  A    between atoms: _269  and  _270
REMARK  110  A    between atoms: _269  and  _272
REMARK  111  A    between atoms: _272  and  _273
REMARK  112  A    between atoms: _276  and  _278
REMARK  113  A    between atoms: _278  and  _279
REMARK  114  A    between atoms: _278  and  _281
REMARK  115  A    between atoms: _281  and  _282
REMARK  116  A    between atoms: _282  and  _283
REMARK  117  A    between atoms: _283  and  _284
REMARK  118  A    between atoms: _284  and  _285
REMARK  119  A    between atoms: _289  and  _291
REMARK  120  A    between atoms: _291  and  _292
REMARK  121  A    between atoms: _291  and  _294
REMARK  122  A    between atoms: _294  and  _295
REMARK  123  A    between atoms: _298  and  _300
REMARK  124  A    between atoms: _300  and  _301
REMARK  125  A    between atoms: _300  and  _303
REMARK  126  A    between atoms: _303  and  _304
REMARK  127  A    between atoms: _307  and  _309
REMARK  128  A    between atoms: _309  and  _310
REMARK  129  A    between atoms: _309  and  _312
REMARK  130  A    between atoms: _312  and  _313
REMARK  131  A    between atoms: _313  and  _314
REMARK  132  A    between atoms: _316  and  _318
REMARK  133  A    between atoms: _318  and  _319
REMARK  134  A    between atoms: _318  and  _321
REMARK  135  A    between atoms: _321  and  _322
REMARK  136  A    between atoms: _322  and  _323
REMARK  137  A    between atoms: _325  and  _327
REMARK  138  A    between atoms: _327  and  _328
REMARK  139  A    between atoms: _327  and  _330
REMARK  140  A    between atoms: _330  and  _331
REMARK  141  A    between atoms: _336  and  _337
REMARK  142  A    between atoms: _339  and  _341
REMARK  143  A    between atoms: _341  and  _342
REMARK  144  A    between atoms: _341  and  _344
REMARK  145  A    between atoms: _344  and  _345
REMARK  146  A    between atoms: _350  and  _351
REMARK  147  A    between atoms: _353  and  _355
REMARK  148  A    between atoms: _355  and  _356
REMARK  149  A    between atoms: _355  and  _358
REMARK  150  A    between atoms: _361  and  _363
REMARK  151  A    between atoms: _363  and  _364
REMARK  152  A    between atoms: _367  and  _369
REMARK  153  A    between atoms: _369  and  _370
REMARK  154  A    between atoms: _372  and  _374
REMARK  155  A    between atoms: _374  and  _375
REMARK  156  A    between atoms: _374  and  _377
REMARK  157  A    between atoms: _377  and  _378
REMARK  158  A    between atoms: _381  and  _383
REMARK  159  A    between atoms: _383  and  _384
REMARK  160  A    between atoms: _383  and  _386
REMARK  161  A    between atoms: _389  and  _391
REMARK  162  A    between atoms: _391  and  _392
REMARK  163  A    between atoms: _394  and  _396
REMARK  164  A    between atoms: _396  and  _397
REMARK  165  A    between atoms: _399  and  _401
REMARK  166  A    between atoms: _401  and  _402
REMARK  167  A    between atoms: _401  and  _404
REMARK  168  A    between atoms: _404  and  _405
REMARK  169  A    between atoms: _408  and  _410
REMARK  170  A    between atoms: _410  and  _411
REMARK  171  A    between atoms: _410  and  _413
REMARK  172  A    between atoms: _413  and  _414
REMARK  173  A    between atoms: _417  and  _419
REMARK  174  A    between atoms: _419  and  _420
REMARK  175  A    between atoms: _419  and  _422
REMARK  176  A    between atoms: _422  and  _423
REMARK  177  A    between atoms: _429  and  _431
REMARK  178  A    between atoms: _431  and  _432
REMARK  179  A    between atoms: _431  and  _434
REMARK  180  A    between atoms: _434  and  _435
REMARK  181  A    between atoms: _435  and  _436
REMARK  182  A    between atoms: _438  and  _440
REMARK  183  A    between atoms: _440  and  _441
REMARK  184  A    between atoms: _440  and  _443
REMARK  185  A    between atoms: _443  and  _444
REMARK  186  A    between atoms: _450  and  _452
REMARK  187  A    between atoms: _452  and  _453
REMARK  188  A    between atoms: _452  and  _455
REMARK  189  A    between atoms: _455  and  _456
REMARK  190  A    between atoms: _459  and  _461
REMARK  191  A    between atoms: _461  and  _462
REMARK  192  A    between atoms: _461  and  _464
REMARK  193  A    between atoms: _464  and  _465
REMARK  194  A    between atoms: _465  and  _466
REMARK  195  A    between atoms: _471  and  _473
REMARK  196  A    between atoms: _473  and  _474
REMARK  197  A    between atoms: _473  and  _476
REMARK  198  A    between atoms: _476  and  _477
REMARK  199  A    between atoms: _477  and  _478
REMARK  200  A    between atoms: _478  and  _479
REMARK  201  A    between atoms: _479  and  _480
REMARK  202  A    between atoms: _484  and  _486
REMARK  203  A    between atoms: _486  and  _487
REMARK  204  A    between atoms: _486  and  _489
REMARK  205  A    between atoms: _489  and  _490
REMARK  206  A    between atoms: _493  and  _495
REMARK  207  A    between atoms: _495  and  _496
REMARK  208  A    between atoms: _495  and  _498
REMARK  209  A    between atoms: _498  and  _499
REMARK  210  A    between atoms: _504  and  _506
REMARK  211  A    between atoms: _506  and  _507
REMARK  212  A    between atoms: _506  and  _509
REMARK  213  A    between atoms: _509  and  _510
REMARK  214  A    between atoms: _513  and  _515
REMARK  215  A    between atoms: _515  and  _516
REMARK  216  A    between atoms: _515  and  _518
REMARK  217  A    between atoms: _518  and  _519
REMARK  218  A    between atoms: _519  and  _520
REMARK  219  A    between atoms: _520  and  _521
REMARK  220  A    between atoms: _530  and  _532
REMARK  221  A    between atoms: _532  and  _533
REMARK  222  A    between atoms: _532  and  _535
REMARK  223  A    between atoms: _535  and  _536
REMARK  224  A    between atoms: _539  and  _541
REMARK  225  A    between atoms: _541  and  _542
REMARK  226  A    between atoms: _541  and  _544
REMARK  227  A    between atoms: _544  and  _545
REMARK  228  A    between atoms: _545  and  _546
REMARK  229  A    between atoms: _549  and  _551
REMARK  230  A    between atoms: _551  and  _552
REMARK  231  A    between atoms: _551  and  _554
REMARK  232  A    between atoms: _554  and  _555
REMARK  233  A    between atoms: _561  and  _563
REMARK  234  A    between atoms: _563  and  _564
REMARK  235  A    between atoms: _563  and  _566
REMARK  236  A    between atoms: _566  and  _567
REMARK  237  A    between atoms: _571  and  _572
REMARK  238  A    between atoms: _577  and  _579
REMARK  239  A    between atoms: _579  and  _580
REMARK  240  A    between atoms: _579  and  _582
REMARK  241  A    between atoms: _582  and  _583
REMARK  242  A    between atoms: _583  and  _584
REMARK  243  A    between atoms: _589  and  _591
REMARK  244  A    between atoms: _591  and  _592
REMARK  245  A    between atoms: _591  and  _594
REMARK  246  A    between atoms: _597  and  _599
REMARK  247  A    between atoms: _599  and  _600
REMARK  248  A    between atoms: _599  and  _602
REMARK  249  A    between atoms: _602  and  _603
REMARK  250  A    between atoms: _603  and  _604
REMARK  251  A    between atoms: _606  and  _608
REMARK  252  A    between atoms: _608  and  _609
REMARK  253  A    between atoms: _612  and  _614
REMARK  254  A    between atoms: _614  and  _615
REMARK  255  A    between atoms: _614  and  _617
REMARK  256  A    between atoms: _617  and  _618
REMARK  257  A    between atoms: _621  and  _623
REMARK  258  A    between atoms: _623  and  _624
REMARK  259  A    between atoms: _627  and  _629
REMARK  260  A    between atoms: _629  and  _630
REMARK  261  A    between atoms: _629  and  _632
REMARK  262  A    between atoms: _632  and  _633
REMARK  263  A    between atoms: _636  and  _638
REMARK  264  A    between atoms: _638  and  _639
REMARK  265  A    between atoms: _638  and  _641
REMARK  266  A    between atoms: _641  and  _642
REMARK  267  A    between atoms: _645  and  _647
REMARK  268  A    between atoms: _647  and  _648
REMARK  269  A    between atoms: _647  and  _650
REMARK  270  A    between atoms: _650  and  _651
REMARK  271  A    between atoms: _654  and  _656
REMARK  272  A    between atoms: _656  and  _657
REMARK  273  A    between atoms: _656  and  _659
REMARK  274  A    between atoms: _659  and  _660
REMARK  275  A    between atoms: _660  and  _661
REMARK  276  A    between atoms: _666  and  _668
REMARK  277  A    between atoms: _668  and  _669
REMARK  278  A    between atoms: _672  and  _674
REMARK  279  A    between atoms: _674  and  _675
REMARK  280  A    between atoms: _674  and  _677
REMARK  281  A    between atoms: _680  and  _682
REMARK  282  A    between atoms: _682  and  _683
REMARK  283  A    between atoms: _682  and  _685
REMARK  284  A    between atoms: _685  and  _686
REMARK  285  A    between atoms: _689  and  _691
REMARK  286  A    between atoms: _691  and  _692
REMARK  287  A    between atoms: _691  and  _694
REMARK  288  A    between atoms: _694  and  _695
REMARK  289  A    between atoms: _695  and  _696
REMARK                            x       y       z     vdW  Elec       q    Type
REMARK                         _______ _______ _______ _____ _____    ______ ____
ROOT
ATOM      1  O   HOH     1      10.325  66.105  52.484  0.00  0.00    +0.000 OA
ENDROOT
TORSDOF 0
REMARK  Name = ../refined-set-2016/3vjc/3vjc_pocket.pdb
REMARK  289 active torsions:
REMARK  status: ('A' for Active; 'I' for Inactive)
REMARK    1  A    between atoms: _1  and  _3
REMARK    2  A    between atoms: _3  and  _4
REMARK    3  A    between atoms: _3  and  _6
REMARK    4  A    between atoms: _6  and  _7
REMARK    5  A    between atoms: _10  and  _12
REMARK    6  A    between atoms: _12  and  _13
REMARK    7  A    between atoms: _12  and  _15
REMARK    8  A    between atoms: _15  and  _16
REMARK    9  A    between atoms: _21  and  _23
REMARK   10  A    between atoms: _23  and  _24
REMARK   11  A    between atoms: _23  and  _26
REMARK   12  A    between atoms: _26  and  _27
REMARK   13  A    between atoms: _27  and  _28
REMARK   14  A    between atoms: _33  and  _35
REMARK   15  A    between atoms: _35  and  _36
REMARK   16  A    between atoms: _35  and  _38
REMARK   17  A    between atoms: _38  and  _39
REMARK   18  A    between atoms: _42  and  _44
REMARK   19  A    between atoms: _44  and  _45
REMARK   20  A    between atoms: _44  and  _47
REMARK   21  A    between atoms: _47  and  _48
REMARK   22  A    between atoms: _50  and  _52
REMARK   23  A    between atoms: _52  and  _53
REMARK   24  A    between atoms: _52  and  _55
REMARK   25  A    between atoms: _55  and  _56
REMARK   26  A    between atoms: _56  and  _57
REMARK   27  A    between atoms: _57  and  _58
REMARK   28  A    between atoms: _67  and  _69
REMARK   29  A    between atoms: _69  and  _70
REMARK   30  A    between atoms: _69  and  _72
REMARK   31  A    between atoms: _72  and  _73
REMARK   32  A    between atoms: _75  and  _77
REMARK   33  A    between atoms: _77  and  _78
REMARK   34  A    between atoms: _77  and  _80
REMARK   35  A    between atoms: _80  and  _81
REMARK   36  A    between atoms: _87  and  _89
REMARK   37  A    between atoms: _89  and  _90
REMARK   38  A    between atoms: _93  and  _95
REMARK   39  A    between atoms: _95  and  _96
REMARK   40  A    between atoms: _99  and  _101
REMARK   41  A    between atoms: _101  and  _102
REMARK   42  A    between atoms: _101  and  _104
REMARK   43  A    between atoms: _107  and  _109
REMARK   44  A    between atoms: _109  and  _110
REMARK   45  A    between atoms: _109  and  _112
REMARK   46  A    between atoms: _112  and  _113
REMARK   47  A    between atoms: _116  and  _118
REMARK   48  A    between atoms: _118  and  _119
REMARK   49  A    between atoms: _118  and  _121
REMARK   50  A    between atoms: _121  and  _122
REMARK   51  A    between atoms: _125  and  _127
REMARK   52  A    between atoms: _127  and  _128
REMARK   53  A    between atoms: _131  and  _133
REMARK   54  A    between atoms: _133  and  _134
REMARK   55  A    between atoms: _133  and  _136
REMARK   56  A    between atoms: _139  and  _141
REMARK   57  A    between atoms: _141  and  _142
REMARK   58  A    between atoms: _141  and  _144
REMARK   59  A    between atoms: _146  and  _148
REMARK   60  A    between atoms: _148  and  _149
REMARK   61  A    between atoms: _148  and  _151
REMARK   62  A    between atoms: _151  and  _152
REMARK   63  A    between atoms: _155  and  _157
REMARK   64  A    between atoms: _157  and  _158
REMARK   65  A    between atoms: _157  and  _160
REMARK   66  A    between atoms: _160  and  _161
REMARK   67  A    between atoms: _167  and  _169
REMARK   68  A    between atoms: _169  and  _170
REMARK   69  A    between atoms: _169  and  _172
REMARK   70  A    between atoms: _172  and  _173
REMARK   71  A    between atoms: _178  and  _179
REMARK   72  A    between atoms: _181  and  _183
REMARK   73  A    between atoms: _183  and  _184
REMARK   74  A    between atoms: _183  and  _186
REMARK   75  A    between atoms: _186  and  _187
REMARK   76  A    between atoms: _190  and  _192
REMARK   77  A    between atoms: _192  and  _193
REMARK   78  A    between atoms: _192  and  _195
REMARK   79  A    between atoms: _198  and  _200
REMARK   80  A    between atoms: _200  and  _201
REMARK   81  A    between atoms: _200  and  _203
REMARK   82  A    between atoms: _203  and  _204
REMARK   83  A    between atoms: _207  and  _209
REMARK   84  A    between atoms: _209  and  _210
REMARK   85  A    between atoms: _209  and  _212
REMARK   86  A    between atoms: _212  and  _213
REMARK   87  A    between atoms: _213  and  _214
REMARK   88  A    between atoms: _214  and  _215
REMARK   89  A    between atoms: _224  and  _226
REMARK   90  A    between atoms: _226  and  _227
REMARK   91  A    between atoms: _230  and  _232
REMARK   92  A    between atoms: _232  and  _233
REMARK   93  A    between atoms: _232  and  _235
REMARK   94  A    between atoms: _235  and  _236
REMARK   95  A    between atoms: _239  and  _241
REMARK   96  A    between atoms: _241  and  _242
REMARK   97  A    between atoms: _241  and  _244
REMARK   98  A    between atoms: _244  and  _245
REMARK   99  A    between atoms: _248  and  _250
REMARK  100  A    between atoms: _250  and  _251
REMARK  101  A    between atoms: _250  and  _253
REMARK  102  A    between atoms: _253  and  _254
REMARK  103  A    between atoms: _257  and  _259
REMARK  104  A    between atoms: _259  and  _260
REMARK  105  A    between atoms: _259  and  _262
REMARK  106  A    between atoms: _262  and  _263
REMARK  107  A    between atoms: _263  and  _264
REMARK  108  A    between atoms: _267  and  _269
REMARK  109  A    between atoms: _269  and  _270
REMARK  110  A    between atoms: _269  and  _272
REMARK  111  A    between atoms: _272  and  _273
REMARK  112  A    between atoms: _276  and  _278
REMARK  113  A    between atoms: _278  and  _279
REMARK  114  A    between atoms: _278  and  _281
REMARK  115  A    between atoms: _281  and  _282
REMARK  116  A    between atoms: _282  and  _283
REMARK  117  A    between atoms: _283  and  _284
REMARK  118  A    between atoms: _284  and  _285
REMARK  119  A    between atoms: _289  and  _291
REMARK  120  A    between atoms: _291  and  _292
REMARK  121  A    between atoms: _291  and  _294
REMARK  122  A    between atoms: _294  and  _295
REMARK  123  A    between atoms: _298  and  _300
REMARK  124  A    between atoms: _300  and  _301
REMARK  125  A    between atoms: _300  and  _303
REMARK  126  A    between atoms: _303  and  _304
REMARK  127  A    between atoms: _307  and  _309
REMARK  128  A    between atoms: _309  and  _310
REMARK  129  A    between atoms: _309  and  _312
REMARK  130  A    between atoms: _312  and  _313
REMARK  131  A    between atoms: _313  and  _314
REMARK  132  A    between atoms: _316  and  _318
REMARK  133  A    between atoms: _318  and  _319
REMARK  134  A    between atoms: _318  and  _321
REMARK  135  A    between atoms: _321  and  _322
REMARK  136  A    between atoms: _322  and  _323
REMARK  137  A    between atoms: _325  and  _327
REMARK  138  A    between atoms: _327  and  _328
REMARK  139  A    between atoms: _327  and  _330
REMARK  140  A    between atoms: _330  and  _331
REMARK  141  A    between atoms: _336  and  _337
REMARK  142  A    between atoms: _339  and  _341
REMARK  143  A    between atoms: _341  and  _342
REMARK  144  A    between atoms: _341  and  _344
REMARK  145  A    between atoms: _344  and  _345
REMARK  146  A    between atoms: _350  and  _351
REMARK  147  A    between atoms: _353  and  _355
REMARK  148  A    between atoms: _355  and  _356
REMARK  149  A    between atoms: _355  and  _358
REMARK  150  A    between atoms: _361  and  _363
REMARK  151  A    between atoms: _363  and  _364
REMARK  152  A    between atoms: _367  and  _369
REMARK  153  A    between atoms: _369  and  _370
REMARK  154  A    between atoms: _372  and  _374
REMARK  155  A    between atoms: _374  and  _375
REMARK  156  A    between atoms: _374  and  _377
REMARK  157  A    between atoms: _377  and  _378
REMARK  158  A    between atoms: _381  and  _383
REMARK  159  A    between atoms: _383  and  _384
REMARK  160  A    between atoms: _383  and  _386
REMARK  161  A    between atoms: _389  and  _391
REMARK  162  A    between atoms: _391  and  _392
REMARK  163  A    between atoms: _394  and  _396
REMARK  164  A    between atoms: _396  and  _397
REMARK  165  A    between atoms: _399  and  _401
REMARK  166  A    between atoms: _401  and  _402
REMARK  167  A    between atoms: _401  and  _404
REMARK  168  A    between atoms: _404  and  _405
REMARK  169  A    between atoms: _408  and  _410
REMARK  170  A    between atoms: _410  and  _411
REMARK  171  A    between atoms: _410  and  _413
REMARK  172  A    between atoms: _413  and  _414
REMARK  173  A    between atoms: _417  and  _419
REMARK  174  A    between atoms: _419  and  _420
REMARK  175  A    between atoms: _419  and  _422
REMARK  176  A    between atoms: _422  and  _423
REMARK  177  A    between atoms: _429  and  _431
REMARK  178  A    between atoms: _431  and  _432
REMARK  179  A    between atoms: _431  and  _434
REMARK  180  A    between atoms: _434  and  _435
REMARK  181  A    between atoms: _435  and  _436
REMARK  182  A    between atoms: _438  and  _440
REMARK  183  A    between atoms: _440  and  _441
REMARK  184  A    between atoms: _440  and  _443
REMARK  185  A    between atoms: _443  and  _444
REMARK  186  A    between atoms: _450  and  _452
REMARK  187  A    between atoms: _452  and  _453
REMARK  188  A    between atoms: _452  and  _455
REMARK  189  A    between atoms: _455  and  _456
REMARK  190  A    between atoms: _459  and  _461
REMARK  191  A    between atoms: _461  and  _462
REMARK  192  A    between atoms: _461  and  _464
REMARK  193  A    between atoms: _464  and  _465
REMARK  194  A    between atoms: _465  and  _466
REMARK  195  A    between atoms: _471  and  _473
REMARK  196  A    between atoms: _473  and  _474
REMARK  197  A    between atoms: _473  and  _476
REMARK  198  A    between atoms: _476  and  _477
REMARK  199  A    between atoms: _477  and  _478
REMARK  200  A    between atoms: _478  and  _479
REMARK  201  A    between atoms: _479  and  _480
REMARK  202  A    between atoms: _484  and  _486
REMARK  203  A    between atoms: _486  and  _487
REMARK  204  A    between atoms: _486  and  _489
REMARK  205  A    between atoms: _489  and  _490
REMARK  206  A    between atoms: _493  and  _495
REMARK  207  A    between atoms: _495  and  _496
REMARK  208  A    between atoms: _495  and  _498
REMARK  209  A    between atoms: _498  and  _499
REMARK  210  A    between atoms: _504  and  _506
REMARK  211  A    between atoms: _506  and  _507
REMARK  212  A    between atoms: _506  and  _509
REMARK  213  A    between atoms: _509  and  _510
REMARK  214  A    between atoms: _513  and  _515
REMARK  215  A    between atoms: _515  and  _516
REMARK  216  A    between atoms: _515  and  _518
REMARK  217  A    between atoms: _518  and  _519
REMARK  218  A    between atoms: _519  and  _520
REMARK  219  A    between atoms: _520  and  _521
REMARK  220  A    between atoms: _530  and  _532
REMARK  221  A    between atoms: _532  and  _533
REMARK  222  A    between atoms: _532  and  _535
REMARK  223  A    between atoms: _535  and  _536
REMARK  224  A    between atoms: _539  and  _541
REMARK  225  A    between atoms: _541  and  _542
REMARK  226  A    between atoms: _541  and  _544
REMARK  227  A    between atoms: _544  and  _545
REMARK  228  A    between atoms: _545  and  _546
REMARK  229  A    between atoms: _549  and  _551
REMARK  230  A    between atoms: _551  and  _552
REMARK  231  A    between atoms: _551  and  _554
REMARK  232  A    between atoms: _554  and  _555
REMARK  233  A    between atoms: _561  and  _563
REMARK  234  A    between atoms: _563  and  _564
REMARK  235  A    between atoms: _563  and  _566
REMARK  236  A    between atoms: _566  and  _567
REMARK  237  A    between atoms: _571  and  _572
REMARK  238  A    between atoms: _577  and  _579
REMARK  239  A    between atoms: _579  and  _580
REMARK  240  A    between atoms: _579  and  _582
REMARK  241  A    between atoms: _582  and  _583
REMARK  242  A    between atoms: _583  and  _584
REMARK  243  A    between atoms: _589  and  _591
REMARK  244  A    between atoms: _591  and  _592
REMARK  245  A    between atoms: _591  and  _594
REMARK  246  A    between atoms: _597  and  _599
REMARK  247  A    between atoms: _599  and  _600
REMARK  248  A    between atoms: _599  and  _602
REMARK  249  A    between atoms: _602  and  _603
REMARK  250  A    between atoms: _603  and  _604
REMARK  251  A    between atoms: _606  and  _608
REMARK  252  A    between atoms: _608  and  _609
REMARK  253  A    between atoms: _612  and  _614
REMARK  254  A    between atoms: _614  and  _615
REMARK  255  A    between atoms: _614  and  _617
REMARK  256  A    between atoms: _617  and  _618
REMARK  257  A    between atoms: _621  and  _623
REMARK  258  A    between atoms: _623  and  _624
REMARK  259  A    between atoms: _627  and  _629
REMARK  260  A    between atoms: _629  and  _630
REMARK  261  A    between atoms: _629  and  _632
REMARK  262  A    between atoms: _632  and  _633
REMARK  263  A    between atoms: _636  and  _638
REMARK  264  A    between atoms: _638  and  _639
REMARK  265  A    between atoms: _638  and  _641
REMARK  266  A    between atoms: _641  and  _642
REMARK  267  A    between atoms: _645  and  _647
REMARK  268  A    between atoms: _647  and  _648
REMARK  269  A    between atoms: _647  and  _650
REMARK  270  A    between atoms: _650  and  _651
REMARK  271  A    between atoms: _654  and  _656
REMARK  272  A    between atoms: _656  and  _657
REMARK  273  A    between atoms: _656  and  _659
REMARK  274  A    between atoms: _659  and  _660
REMARK  275  A    between atoms: _660  and  _661
REMARK  276  A    between atoms: _666  and  _668
REMARK  277  A    between atoms: _668  and  _669
REMARK  278  A    between atoms: _672  and  _674
REMARK  279  A    between atoms: _674  and  _675
REMARK  280  A    between atoms: _674  and  _677
REMARK  281  A    between atoms: _680  and  _682
REMARK  282  A    between atoms: _682  and  _683
REMARK  283  A    between atoms: _682  and  _685
REMARK  284  A    between atoms: _685  and  _686
REMARK  285  A    between atoms: _689  and  _691
REMARK  286  A    between atoms: _691  and  _692
REMARK  287  A    between atoms: _691  and  _694
REMARK  288  A    between atoms: _694  and  _695
REMARK  289  A    between atoms: _695  and  _696
REMARK                            x       y       z     vdW  Elec       q    Type
REMARK                         _______ _______ _______ _____ _____    ______ ____
ROOT
ATOM      1  O   HOH     1       8.744  64.212  54.708  0.00  0.00    +0.000 OA
ENDROOT
TORSDOF 0
REMARK  Name = ../refined-set-2016/3vjc/3vjc_pocket.pdb
REMARK  289 active torsions:
REMARK  status: ('A' for Active; 'I' for Inactive)
REMARK    1  A    between atoms: _1  and  _3
REMARK    2  A    between atoms: _3  and  _4
REMARK    3  A    between atoms: _3  and  _6
REMARK    4  A    between atoms: _6  and  _7
REMARK    5  A    between atoms: _10  and  _12
REMARK    6  A    between atoms: _12  and  _13
REMARK    7  A    between atoms: _12  and  _15
REMARK    8  A    between atoms: _15  and  _16
REMARK    9  A    between atoms: _21  and  _23
REMARK   10  A    between atoms: _23  and  _24
REMARK   11  A    between atoms: _23  and  _26
REMARK   12  A    between atoms: _26  and  _27
REMARK   13  A    between atoms: _27  and  _28
REMARK   14  A    between atoms: _33  and  _35
REMARK   15  A    between atoms: _35  and  _36
REMARK   16  A    between atoms: _35  and  _38
REMARK   17  A    between atoms: _38  and  _39
REMARK   18  A    between atoms: _42  and  _44
REMARK   19  A    between atoms: _44  and  _45
REMARK   20  A    between atoms: _44  and  _47
REMARK   21  A    between atoms: _47  and  _48
REMARK   22  A    between atoms: _50  and  _52
REMARK   23  A    between atoms: _52  and  _53
REMARK   24  A    between atoms: _52  and  _55
REMARK   25  A    between atoms: _55  and  _56
REMARK   26  A    between atoms: _56  and  _57
REMARK   27  A    between atoms: _57  and  _58
REMARK   28  A    between atoms: _67  and  _69
REMARK   29  A    between atoms: _69  and  _70
REMARK   30  A    between atoms: _69  and  _72
REMARK   31  A    between atoms: _72  and  _73
REMARK   32  A    between atoms: _75  and  _77
REMARK   33  A    between atoms: _77  and  _78
REMARK   34  A    between atoms: _77  and  _80
REMARK   35  A    between atoms: _80  and  _81
REMARK   36  A    between atoms: _87  and  _89
REMARK   37  A    between atoms: _89  and  _90
REMARK   38  A    between atoms: _93  and  _95
REMARK   39  A    between atoms: _95  and  _96
REMARK   40  A    between atoms: _99  and  _101
REMARK   41  A    between atoms: _101  and  _102
REMARK   42  A    between atoms: _101  and  _104
REMARK   43  A    between atoms: _107  and  _109
REMARK   44  A    between atoms: _109  and  _110
REMARK   45  A    between atoms: _109  and  _112
REMARK   46  A    between atoms: _112  and  _113
REMARK   47  A    between atoms: _116  and  _118
REMARK   48  A    between atoms: _118  and  _119
REMARK   49  A    between atoms: _118  and  _121
REMARK   50  A    between atoms: _121  and  _122
REMARK   51  A    between atoms: _125  and  _127
REMARK   52  A    between atoms: _127  and  _128
REMARK   53  A    between atoms: _131  and  _133
REMARK   54  A    between atoms: _133  and  _134
REMARK   55  A    between atoms: _133  and  _136
REMARK   56  A    between atoms: _139  and  _141
REMARK   57  A    between atoms: _141  and  _142
REMARK   58  A    between atoms: _141  and  _144
REMARK   59  A    between atoms: _146  and  _148
REMARK   60  A    between atoms: _148  and  _149
REMARK   61  A    between atoms: _148  and  _151
REMARK   62  A    between atoms: _151  and  _152
REMARK   63  A    between atoms: _155  and  _157
REMARK   64  A    between atoms: _157  and  _158
REMARK   65  A    between atoms: _157  and  _160
REMARK   66  A    between atoms: _160  and  _161
REMARK   67  A    between atoms: _167  and  _169
REMARK   68  A    between atoms: _169  and  _170
REMARK   69  A    between atoms: _169  and  _172
REMARK   70  A    between atoms: _172  and  _173
REMARK   71  A    between atoms: _178  and  _179
REMARK   72  A    between atoms: _181  and  _183
REMARK   73  A    between atoms: _183  and  _184
REMARK   74  A    between atoms: _183  and  _186
REMARK   75  A    between atoms: _186  and  _187
REMARK   76  A    between atoms: _190  and  _192
REMARK   77  A    between atoms: _192  and  _193
REMARK   78  A    between atoms: _192  and  _195
REMARK   79  A    between atoms: _198  and  _200
REMARK   80  A    between atoms: _200  and  _201
REMARK   81  A    between atoms: _200  and  _203
REMARK   82  A    between atoms: _203  and  _204
REMARK   83  A    between atoms: _207  and  _209
REMARK   84  A    between atoms: _209  and  _210
REMARK   85  A    between atoms: _209  and  _212
REMARK   86  A    between atoms: _212  and  _213
REMARK   87  A    between atoms: _213  and  _214
REMARK   88  A    between atoms: _214  and  _215
REMARK   89  A    between atoms: _224  and  _226
REMARK   90  A    between atoms: _226  and  _227
REMARK   91  A    between atoms: _230  and  _232
REMARK   92  A    between atoms: _232  and  _233
REMARK   93  A    between atoms: _232  and  _235
REMARK   94  A    between atoms: _235  and  _236
REMARK   95  A    between atoms: _239  and  _241
REMARK   96  A    between atoms: _241  and  _242
REMARK   97  A    between atoms: _241  and  _244
REMARK   98  A    between atoms: _244  and  _245
REMARK   99  A    between atoms: _248  and  _250
REMARK  100  A    between atoms: _250  and  _251
REMARK  101  A    between atoms: _250  and  _253
REMARK  102  A    between atoms: _253  and  _254
REMARK  103  A    between atoms: _257  and  _259
REMARK  104  A    between atoms: _259  and  _260
REMARK  105  A    between atoms: _259  and  _262
REMARK  106  A    between atoms: _262  and  _263
REMARK  107  A    between atoms: _263  and  _264
REMARK  108  A    between atoms: _267  and  _269
REMARK  109  A    between atoms: _269  and  _270
REMARK  110  A    between atoms: _269  and  _272
REMARK  111  A    between atoms: _272  and  _273
REMARK  112  A    between atoms: _276  and  _278
REMARK  113  A    between atoms: _278  and  _279
REMARK  114  A    between atoms: _278  and  _281
REMARK  115  A    between atoms: _281  and  _282
REMARK  116  A    between atoms: _282  and  _283
REMARK  117  A    between atoms: _283  and  _284
REMARK  118  A    between atoms: _284  and  _285
REMARK  119  A    between atoms: _289  and  _291
REMARK  120  A    between atoms: _291  and  _292
REMARK  121  A    between atoms: _291  and  _294
REMARK  122  A    between atoms: _294  and  _295
REMARK  123  A    between atoms: _298  and  _300
REMARK  124  A    between atoms: _300  and  _301
REMARK  125  A    between atoms: _300  and  _303
REMARK  126  A    between atoms: _303  and  _304
REMARK  127  A    between atoms: _307  and  _309
REMARK  128  A    between atoms: _309  and  _310
REMARK  129  A    between atoms: _309  and  _312
REMARK  130  A    between atoms: _312  and  _313
REMARK  131  A    between atoms: _313  and  _314
REMARK  132  A    between atoms: _316  and  _318
REMARK  133  A    between atoms: _318  and  _319
REMARK  134  A    between atoms: _318  and  _321
REMARK  135  A    between atoms: _321  and  _322
REMARK  136  A    between atoms: _322  and  _323
REMARK  137  A    between atoms: _325  and  _327
REMARK  138  A    between atoms: _327  and  _328
REMARK  139  A    between atoms: _327  and  _330
REMARK  140  A    between atoms: _330  and  _331
REMARK  141  A    between atoms: _336  and  _337
REMARK  142  A    between atoms: _339  and  _341
REMARK  143  A    between atoms: _341  and  _342
REMARK  144  A    between atoms: _341  and  _344
REMARK  145  A    between atoms: _344  and  _345
REMARK  146  A    between atoms: _350  and  _351
REMARK  147  A    between atoms: _353  and  _355
REMARK  148  A    between atoms: _355  and  _356
REMARK  149  A    between atoms: _355  and  _358
REMARK  150  A    between atoms: _361  and  _363
REMARK  151  A    between atoms: _363  and  _364
REMARK  152  A    between atoms: _367  and  _369
REMARK  153  A    between atoms: _369  and  _370
REMARK  154  A    between atoms: _372  and  _374
REMARK  155  A    between atoms: _374  and  _375
REMARK  156  A    between atoms: _374  and  _377
REMARK  157  A    between atoms: _377  and  _378
REMARK  158  A    between atoms: _381  and  _383
REMARK  159  A    between atoms: _383  and  _384
REMARK  160  A    between atoms: _383  and  _386
REMARK  161  A    between atoms: _389  and  _391
REMARK  162  A    between atoms: _391  and  _392
REMARK  163  A    between atoms: _394  and  _396
REMARK  164  A    between atoms: _396  and  _397
REMARK  165  A    between atoms: _399  and  _401
REMARK  166  A    between atoms: _401  and  _402
REMARK  167  A    between atoms: _401  and  _404
REMARK  168  A    between atoms: _404  and  _405
REMARK  169  A    between atoms: _408  and  _410
REMARK  170  A    between atoms: _410  and  _411
REMARK  171  A    between atoms: _410  and  _413
REMARK  172  A    between atoms: _413  and  _414
REMARK  173  A    between atoms: _417  and  _419
REMARK  174  A    between atoms: _419  and  _420
REMARK  175  A    between atoms: _419  and  _422
REMARK  176  A    between atoms: _422  and  _423
REMARK  177  A    between atoms: _429  and  _431
REMARK  178  A    between atoms: _431  and  _432
REMARK  179  A    between atoms: _431  and  _434
REMARK  180  A    between atoms: _434  and  _435
REMARK  181  A    between atoms: _435  and  _436
REMARK  182  A    between atoms: _438  and  _440
REMARK  183  A    between atoms: _440  and  _441
REMARK  184  A    between atoms: _440  and  _443
REMARK  185  A    between atoms: _443  and  _444
REMARK  186  A    between atoms: _450  and  _452
REMARK  187  A    between atoms: _452  and  _453
REMARK  188  A    between atoms: _452  and  _455
REMARK  189  A    between atoms: _455  and  _456
REMARK  190  A    between atoms: _459  and  _461
REMARK  191  A    between atoms: _461  and  _462
REMARK  192  A    between atoms: _461  and  _464
REMARK  193  A    between atoms: _464  and  _465
REMARK  194  A    between atoms: _465  and  _466
REMARK  195  A    between atoms: _471  and  _473
REMARK  196  A    between atoms: _473  and  _474
REMARK  197  A    between atoms: _473  and  _476
REMARK  198  A    between atoms: _476  and  _477
REMARK  199  A    between atoms: _477  and  _478
REMARK  200  A    between atoms: _478  and  _479
REMARK  201  A    between atoms: _479  and  _480
REMARK  202  A    between atoms: _484  and  _486
REMARK  203  A    between atoms: _486  and  _487
REMARK  204  A    between atoms: _486  and  _489
REMARK  205  A    between atoms: _489  and  _490
REMARK  206  A    between atoms: _493  and  _495
REMARK  207  A    between atoms: _495  and  _496
REMARK  208  A    between atoms: _495  and  _498
REMARK  209  A    between atoms: _498  and  _499
REMARK  210  A    between atoms: _504  and  _506
REMARK  211  A    between atoms: _506  and  _507
REMARK  212  A    between atoms: _506  and  _509
REMARK  213  A    between atoms: _509  and  _510
REMARK  214  A    between atoms: _513  and  _515
REMARK  215  A    between atoms: _515  and  _516
REMARK  216  A    between atoms: _515  and  _518
REMARK  217  A    between atoms: _518  and  _519
REMARK  218  A    between atoms: _519  and  _520
REMARK  219  A    between atoms: _520  and  _521
REMARK  220  A    between atoms: _530  and  _532
REMARK  221  A    between atoms: _532  and  _533
REMARK  222  A    between atoms: _532  and  _535
REMARK  223  A    between atoms: _535  and  _536
REMARK  224  A    between atoms: _539  and  _541
REMARK  225  A    between atoms: _541  and  _542
REMARK  226  A    between atoms: _541  and  _544
REMARK  227  A    between atoms: _544  and  _545
REMARK  228  A    between atoms: _545  and  _546
REMARK  229  A    between atoms: _549  and  _551
REMARK  230  A    between atoms: _551  and  _552
REMARK  231  A    between atoms: _551  and  _554
REMARK  232  A    between atoms: _554  and  _555
REMARK  233  A    between atoms: _561  and  _563
REMARK  234  A    between atoms: _563  and  _564
REMARK  235  A    between atoms: _563  and  _566
REMARK  236  A    between atoms: _566  and  _567
REMARK  237  A    between atoms: _571  and  _572
REMARK  238  A    between atoms: _577  and  _579
REMARK  239  A    between atoms: _579  and  _580
REMARK  240  A    between atoms: _579  and  _582
REMARK  241  A    between atoms: _582  and  _583
REMARK  242  A    between atoms: _583  and  _584
REMARK  243  A    between atoms: _589  and  _591
REMARK  244  A    between atoms: _591  and  _592
REMARK  245  A    between atoms: _591  and  _594
REMARK  246  A    between atoms: _597  and  _599
REMARK  247  A    between atoms: _599  and  _600
REMARK  248  A    between atoms: _599  and  _602
REMARK  249  A    between atoms: _602  and  _603
REMARK  250  A    between atoms: _603  and  _604
REMARK  251  A    between atoms: _606  and  _608
REMARK  252  A    between atoms: _608  and  _609
REMARK  253  A    between atoms: _612  and  _614
REMARK  254  A    between atoms: _614  and  _615
REMARK  255  A    between atoms: _614  and  _617
REMARK  256  A    between atoms: _617  and  _618
REMARK  257  A    between atoms: _621  and  _623
REMARK  258  A    between atoms: _623  and  _624
REMARK  259  A    between atoms: _627  and  _629
REMARK  260  A    between atoms: _629  and  _630
REMARK  261  A    between atoms: _629  and  _632
REMARK  262  A    between atoms: _632  and  _633
REMARK  263  A    between atoms: _636  and  _638
REMARK  264  A    between atoms: _638  and  _639
REMARK  265  A    between atoms: _638  and  _641
REMARK  266  A    between atoms: _641  and  _642
REMARK  267  A    between atoms: _645  and  _647
REMARK  268  A    between atoms: _647  and  _648
REMARK  269  A    between atoms: _647  and  _650
REMARK  270  A    between atoms: _650  and  _651
REMARK  271  A    between atoms: _654  and  _656
REMARK  272  A    between atoms: _656  and  _657
REMARK  273  A    between atoms: _656  and  _659
REMARK  274  A    between atoms: _659  and  _660
REMARK  275  A    between atoms: _660  and  _661
REMARK  276  A    between atoms: _666  and  _668
REMARK  277  A    between atoms: _668  and  _669
REMARK  278  A    between atoms: _672  and  _674
REMARK  279  A    between atoms: _674  and  _675
REMARK  280  A    between atoms: _674  and  _677
REMARK  281  A    between atoms: _680  and  _682
REMARK  282  A    between atoms: _682  and  _683
REMARK  283  A    between atoms: _682  and  _685
REMARK  284  A    between atoms: _685  and  _686
REMARK  285  A    between atoms: _689  and  _691
REMARK  286  A    between atoms: _691  and  _692
REMARK  287  A    between atoms: _691  and  _694
REMARK  288  A    between atoms: _694  and  _695
REMARK  289  A    between atoms: _695  and  _696
REMARK                            x       y       z     vdW  Elec       q    Type
REMARK                         _______ _______ _______ _____ _____    ______ ____
ROOT
ATOM      1  O   HOH     1      13.916  64.825  55.728  0.00  0.00    +0.000 OA
ENDROOT
TORSDOF 0
REMARK  Name = ../refined-set-2016/3vjc/3vjc_pocket.pdb
REMARK  289 active torsions:
REMARK  status: ('A' for Active; 'I' for Inactive)
REMARK    1  A    between atoms: _1  and  _3
REMARK    2  A    between atoms: _3  and  _4
REMARK    3  A    between atoms: _3  and  _6
REMARK    4  A    between atoms: _6  and  _7
REMARK    5  A    between atoms: _10  and  _12
REMARK    6  A    between atoms: _12  and  _13
REMARK    7  A    between atoms: _12  and  _15
REMARK    8  A    between atoms: _15  and  _16
REMARK    9  A    between atoms: _21  and  _23
REMARK   10  A    between atoms: _23  and  _24
REMARK   11  A    between atoms: _23  and  _26
REMARK   12  A    between atoms: _26  and  _27
REMARK   13  A    between atoms: _27  and  _28
REMARK   14  A    between atoms: _33  and  _35
REMARK   15  A    between atoms: _35  and  _36
REMARK   16  A    between atoms: _35  and  _38
REMARK   17  A    between atoms: _38  and  _39
REMARK   18  A    between atoms: _42  and  _44
REMARK   19  A    between atoms: _44  and  _45
REMARK   20  A    between atoms: _44  and  _47
REMARK   21  A    between atoms: _47  and  _48
REMARK   22  A    between atoms: _50  and  _52
REMARK   23  A    between atoms: _52  and  _53
REMARK   24  A    between atoms: _52  and  _55
REMARK   25  A    between atoms: _55  and  _56
REMARK   26  A    between atoms: _56  and  _57
REMARK   27  A    between atoms: _57  and  _58
REMARK   28  A    between atoms: _67  and  _69
REMARK   29  A    between atoms: _69  and  _70
REMARK   30  A    between atoms: _69  and  _72
REMARK   31  A    between atoms: _72  and  _73
REMARK   32  A    between atoms: _75  and  _77
REMARK   33  A    between atoms: _77  and  _78
REMARK   34  A    between atoms: _77  and  _80
REMARK   35  A    between atoms: _80  and  _81
REMARK   36  A    between atoms: _87  and  _89
REMARK   37  A    between atoms: _89  and  _90
REMARK   38  A    between atoms: _93  and  _95
REMARK   39  A    between atoms: _95  and  _96
REMARK   40  A    between atoms: _99  and  _101
REMARK   41  A    between atoms: _101  and  _102
REMARK   42  A    between atoms: _101  and  _104
REMARK   43  A    between atoms: _107  and  _109
REMARK   44  A    between atoms: _109  and  _110
REMARK   45  A    between atoms: _109  and  _112
REMARK   46  A    between atoms: _112  and  _113
REMARK   47  A    between atoms: _116  and  _118
REMARK   48  A    between atoms: _118  and  _119
REMARK   49  A    between atoms: _118  and  _121
REMARK   50  A    between atoms: _121  and  _122
REMARK   51  A    between atoms: _125  and  _127
REMARK   52  A    between atoms: _127  and  _128
REMARK   53  A    between atoms: _131  and  _133
REMARK   54  A    between atoms: _133  and  _134
REMARK   55  A    between atoms: _133  and  _136
REMARK   56  A    between atoms: _139  and  _141
REMARK   57  A    between atoms: _141  and  _142
REMARK   58  A    between atoms: _141  and  _144
REMARK   59  A    between atoms: _146  and  _148
REMARK   60  A    between atoms: _148  and  _149
REMARK   61  A    between atoms: _148  and  _151
REMARK   62  A    between atoms: _151  and  _152
REMARK   63  A    between atoms: _155  and  _157
REMARK   64  A    between atoms: _157  and  _158
REMARK   65  A    between atoms: _157  and  _160
REMARK   66  A    between atoms: _160  and  _161
REMARK   67  A    between atoms: _167  and  _169
REMARK   68  A    between atoms: _169  and  _170
REMARK   69  A    between atoms: _169  and  _172
REMARK   70  A    between atoms: _172  and  _173
REMARK   71  A    between atoms: _178  and  _179
REMARK   72  A    between atoms: _181  and  _183
REMARK   73  A    between atoms: _183  and  _184
REMARK   74  A    between atoms: _183  and  _186
REMARK   75  A    between atoms: _186  and  _187
REMARK   76  A    between atoms: _190  and  _192
REMARK   77  A    between atoms: _192  and  _193
REMARK   78  A    between atoms: _192  and  _195
REMARK   79  A    between atoms: _198  and  _200
REMARK   80  A    between atoms: _200  and  _201
REMARK   81  A    between atoms: _200  and  _203
REMARK   82  A    between atoms: _203  and  _204
REMARK   83  A    between atoms: _207  and  _209
REMARK   84  A    between atoms: _209  and  _210
REMARK   85  A    between atoms: _209  and  _212
REMARK   86  A    between atoms: _212  and  _213
REMARK   87  A    between atoms: _213  and  _214
REMARK   88  A    between atoms: _214  and  _215
REMARK   89  A    between atoms: _224  and  _226
REMARK   90  A    between atoms: _226  and  _227
REMARK   91  A    between atoms: _230  and  _232
REMARK   92  A    between atoms: _232  and  _233
REMARK   93  A    between atoms: _232  and  _235
REMARK   94  A    between atoms: _235  and  _236
REMARK   95  A    between atoms: _239  and  _241
REMARK   96  A    between atoms: _241  and  _242
REMARK   97  A    between atoms: _241  and  _244
REMARK   98  A    between atoms: _244  and  _245
REMARK   99  A    between atoms: _248  and  _250
REMARK  100  A    between atoms: _250  and  _251
REMARK  101  A    between atoms: _250  and  _253
REMARK  102  A    between atoms: _253  and  _254
REMARK  103  A    between atoms: _257  and  _259
REMARK  104  A    between atoms: _259  and  _260
REMARK  105  A    between atoms: _259  and  _262
REMARK  106  A    between atoms: _262  and  _263
REMARK  107  A    between atoms: _263  and  _264
REMARK  108  A    between atoms: _267  and  _269
REMARK  109  A    between atoms: _269  and  _270
REMARK  110  A    between atoms: _269  and  _272
REMARK  111  A    between atoms: _272  and  _273
REMARK  112  A    between atoms: _276  and  _278
REMARK  113  A    between atoms: _278  and  _279
REMARK  114  A    between atoms: _278  and  _281
REMARK  115  A    between atoms: _281  and  _282
REMARK  116  A    between atoms: _282  and  _283
REMARK  117  A    between atoms: _283  and  _284
REMARK  118  A    between atoms: _284  and  _285
REMARK  119  A    between atoms: _289  and  _291
REMARK  120  A    between atoms: _291  and  _292
REMARK  121  A    between atoms: _291  and  _294
REMARK  122  A    between atoms: _294  and  _295
REMARK  123  A    between atoms: _298  and  _300
REMARK  124  A    between atoms: _300  and  _301
REMARK  125  A    between atoms: _300  and  _303
REMARK  126  A    between atoms: _303  and  _304
REMARK  127  A    between atoms: _307  and  _309
REMARK  128  A    between atoms: _309  and  _310
REMARK  129  A    between atoms: _309  and  _312
REMARK  130  A    between atoms: _312  and  _313
REMARK  131  A    between atoms: _313  and  _314
REMARK  132  A    between atoms: _316  and  _318
REMARK  133  A    between atoms: _318  and  _319
REMARK  134  A    between atoms: _318  and  _321
REMARK  135  A    between atoms: _321  and  _322
REMARK  136  A    between atoms: _322  and  _323
REMARK  137  A    between atoms: _325  and  _327
REMARK  138  A    between atoms: _327  and  _328
REMARK  139  A    between atoms: _327  and  _330
REMARK  140  A    between atoms: _330  and  _331
REMARK  141  A    between atoms: _336  and  _337
REMARK  142  A    between atoms: _339  and  _341
REMARK  143  A    between atoms: _341  and  _342
REMARK  144  A    between atoms: _341  and  _344
REMARK  145  A    between atoms: _344  and  _345
REMARK  146  A    between atoms: _350  and  _351
REMARK  147  A    between atoms: _353  and  _355
REMARK  148  A    between atoms: _355  and  _356
REMARK  149  A    between atoms: _355  and  _358
REMARK  150  A    between atoms: _361  and  _363
REMARK  151  A    between atoms: _363  and  _364
REMARK  152  A    between atoms: _367  and  _369
REMARK  153  A    between atoms: _369  and  _370
REMARK  154  A    between atoms: _372  and  _374
REMARK  155  A    between atoms: _374  and  _375
REMARK  156  A    between atoms: _374  and  _377
REMARK  157  A    between atoms: _377  and  _378
REMARK  158  A    between atoms: _381  and  _383
REMARK  159  A    between atoms: _383  and  _384
REMARK  160  A    between atoms: _383  and  _386
REMARK  161  A    between atoms: _389  and  _391
REMARK  162  A    between atoms: _391  and  _392
REMARK  163  A    between atoms: _394  and  _396
REMARK  164  A    between atoms: _396  and  _397
REMARK  165  A    between atoms: _399  and  _401
REMARK  166  A    between atoms: _401  and  _402
REMARK  167  A    between atoms: _401  and  _404
REMARK  168  A    between atoms: _404  and  _405
REMARK  169  A    between atoms: _408  and  _410
REMARK  170  A    between atoms: _410  and  _411
REMARK  171  A    between atoms: _410  and  _413
REMARK  172  A    between atoms: _413  and  _414
REMARK  173  A    between atoms: _417  and  _419
REMARK  174  A    between atoms: _419  and  _420
REMARK  175  A    between atoms: _419  and  _422
REMARK  176  A    between atoms: _422  and  _423
REMARK  177  A    between atoms: _429  and  _431
REMARK  178  A    between atoms: _431  and  _432
REMARK  179  A    between atoms: _431  and  _434
REMARK  180  A    between atoms: _434  and  _435
REMARK  181  A    between atoms: _435  and  _436
REMARK  182  A    between atoms: _438  and  _440
REMARK  183  A    between atoms: _440  and  _441
REMARK  184  A    between atoms: _440  and  _443
REMARK  185  A    between atoms: _443  and  _444
REMARK  186  A    between atoms: _450  and  _452
REMARK  187  A    between atoms: _452  and  _453
REMARK  188  A    between atoms: _452  and  _455
REMARK  189  A    between atoms: _455  and  _456
REMARK  190  A    between atoms: _459  and  _461
REMARK  191  A    between atoms: _461  and  _462
REMARK  192  A    between atoms: _461  and  _464
REMARK  193  A    between atoms: _464  and  _465
REMARK  194  A    between atoms: _465  and  _466
REMARK  195  A    between atoms: _471  and  _473
REMARK  196  A    between atoms: _473  and  _474
REMARK  197  A    between atoms: _473  and  _476
REMARK  198  A    between atoms: _476  and  _477
REMARK  199  A    between atoms: _477  and  _478
REMARK  200  A    between atoms: _478  and  _479
REMARK  201  A    between atoms: _479  and  _480
REMARK  202  A    between atoms: _484  and  _486
REMARK  203  A    between atoms: _486  and  _487
REMARK  204  A    between atoms: _486  and  _489
REMARK  205  A    between atoms: _489  and  _490
REMARK  206  A    between atoms: _493  and  _495
REMARK  207  A    between atoms: _495  and  _496
REMARK  208  A    between atoms: _495  and  _498
REMARK  209  A    between atoms: _498  and  _499
REMARK  210  A    between atoms: _504  and  _506
REMARK  211  A    between atoms: _506  and  _507
REMARK  212  A    between atoms: _506  and  _509
REMARK  213  A    between atoms: _509  and  _510
REMARK  214  A    between atoms: _513  and  _515
REMARK  215  A    between atoms: _515  and  _516
REMARK  216  A    between atoms: _515  and  _518
REMARK  217  A    between atoms: _518  and  _519
REMARK  218  A    between atoms: _519  and  _520
REMARK  219  A    between atoms: _520  and  _521
REMARK  220  A    between atoms: _530  and  _532
REMARK  221  A    between atoms: _532  and  _533
REMARK  222  A    between atoms: _532  and  _535
REMARK  223  A    between atoms: _535  and  _536
REMARK  224  A    between atoms: _539  and  _541
REMARK  225  A    between atoms: _541  and  _542
REMARK  226  A    between atoms: _541  and  _544
REMARK  227  A    between atoms: _544  and  _545
REMARK  228  A    between atoms: _545  and  _546
REMARK  229  A    between atoms: _549  and  _551
REMARK  230  A    between atoms: _551  and  _552
REMARK  231  A    between atoms: _551  and  _554
REMARK  232  A    between atoms: _554  and  _555
REMARK  233  A    between atoms: _561  and  _563
REMARK  234  A    between atoms: _563  and  _564
REMARK  235  A    between atoms: _563  and  _566
REMARK  236  A    between atoms: _566  and  _567
REMARK  237  A    between atoms: _571  and  _572
REMARK  238  A    between atoms: _577  and  _579
REMARK  239  A    between atoms: _579  and  _580
REMARK  240  A    between atoms: _579  and  _582
REMARK  241  A    between atoms: _582  and  _583
REMARK  242  A    between atoms: _583  and  _584
REMARK  243  A    between atoms: _589  and  _591
REMARK  244  A    between atoms: _591  and  _592
REMARK  245  A    between atoms: _591  and  _594
REMARK  246  A    between atoms: _597  and  _599
REMARK  247  A    between atoms: _599  and  _600
REMARK  248  A    between atoms: _599  and  _602
REMARK  249  A    between atoms: _602  and  _603
REMARK  250  A    between atoms: _603  and  _604
REMARK  251  A    between atoms: _606  and  _608
REMARK  252  A    between atoms: _608  and  _609
REMARK  253  A    between atoms: _612  and  _614
REMARK  254  A    between atoms: _614  and  _615
REMARK  255  A    between atoms: _614  and  _617
REMARK  256  A    between atoms: _617  and  _618
REMARK  257  A    between atoms: _621  and  _623
REMARK  258  A    between atoms: _623  and  _624
REMARK  259  A    between atoms: _627  and  _629
REMARK  260  A    between atoms: _629  and  _630
REMARK  261  A    between atoms: _629  and  _632
REMARK  262  A    between atoms: _632  and  _633
REMARK  263  A    between atoms: _636  and  _638
REMARK  264  A    between atoms: _638  and  _639
REMARK  265  A    between atoms: _638  and  _641
REMARK  266  A    between atoms: _641  and  _642
REMARK  267  A    between atoms: _645  and  _647
REMARK  268  A    between atoms: _647  and  _648
REMARK  269  A    between atoms: _647  and  _650
REMARK  270  A    between atoms: _650  and  _651
REMARK  271  A    between atoms: _654  and  _656
REMARK  272  A    between atoms: _656  and  _657
REMARK  273  A    between atoms: _656  and  _659
REMARK  274  A    between atoms: _659  and  _660
REMARK  275  A    between atoms: _660  and  _661
REMARK  276  A    between atoms: _666  and  _668
REMARK  277  A    between atoms: _668  and  _669
REMARK  278  A    between atoms: _672  and  _674
REMARK  279  A    between atoms: _674  and  _675
REMARK  280  A    between atoms: _674  and  _677
REMARK  281  A    between atoms: _680  and  _682
REMARK  282  A    between atoms: _682  and  _683
REMARK  283  A    between atoms: _682  and  _685
REMARK  284  A    between atoms: _685  and  _686
REMARK  285  A    between atoms: _689  and  _691
REMARK  286  A    between atoms: _691  and  _692
REMARK  287  A    between atoms: _691  and  _694
REMARK  288  A    between atoms: _694  and  _695
REMARK  289  A    between atoms: _695  and  _696
REMARK                            x       y       z     vdW  Elec       q    Type
REMARK                         _______ _______ _______ _____ _____    ______ ____
ROOT
ATOM      1  O   HOH     1      14.330  67.688  57.421  0.00  0.00    +0.000 OA
ENDROOT
TORSDOF 0
REMARK  Name = ../refined-set-2016/3vjc/3vjc_pocket.pdb
REMARK  289 active torsions:
REMARK  status: ('A' for Active; 'I' for Inactive)
REMARK    1  A    between atoms: _1  and  _3
REMARK    2  A    between atoms: _3  and  _4
REMARK    3  A    between atoms: _3  and  _6
REMARK    4  A    between atoms: _6  and  _7
REMARK    5  A    between atoms: _10  and  _12
REMARK    6  A    between atoms: _12  and  _13
REMARK    7  A    between atoms: _12  and  _15
REMARK    8  A    between atoms: _15  and  _16
REMARK    9  A    between atoms: _21  and  _23
REMARK   10  A    between atoms: _23  and  _24
REMARK   11  A    between atoms: _23  and  _26
REMARK   12  A    between atoms: _26  and  _27
REMARK   13  A    between atoms: _27  and  _28
REMARK   14  A    between atoms: _33  and  _35
REMARK   15  A    between atoms: _35  and  _36
REMARK   16  A    between atoms: _35  and  _38
REMARK   17  A    between atoms: _38  and  _39
REMARK   18  A    between atoms: _42  and  _44
REMARK   19  A    between atoms: _44  and  _45
REMARK   20  A    between atoms: _44  and  _47
REMARK   21  A    between atoms: _47  and  _48
REMARK   22  A    between atoms: _50  and  _52
REMARK   23  A    between atoms: _52  and  _53
REMARK   24  A    between atoms: _52  and  _55
REMARK   25  A    between atoms: _55  and  _56
REMARK   26  A    between atoms: _56  and  _57
REMARK   27  A    between atoms: _57  and  _58
REMARK   28  A    between atoms: _67  and  _69
REMARK   29  A    between atoms: _69  and  _70
REMARK   30  A    between atoms: _69  and  _72
REMARK   31  A    between atoms: _72  and  _73
REMARK   32  A    between atoms: _75  and  _77
REMARK   33  A    between atoms: _77  and  _78
REMARK   34  A    between atoms: _77  and  _80
REMARK   35  A    between atoms: _80  and  _81
REMARK   36  A    between atoms: _87  and  _89
REMARK   37  A    between atoms: _89  and  _90
REMARK   38  A    between atoms: _93  and  _95
REMARK   39  A    between atoms: _95  and  _96
REMARK   40  A    between atoms: _99  and  _101
REMARK   41  A    between atoms: _101  and  _102
REMARK   42  A    between atoms: _101  and  _104
REMARK   43  A    between atoms: _107  and  _109
REMARK   44  A    between atoms: _109  and  _110
REMARK   45  A    between atoms: _109  and  _112
REMARK   46  A    between atoms: _112  and  _113
REMARK   47  A    between atoms: _116  and  _118
REMARK   48  A    between atoms: _118  and  _119
REMARK   49  A    between atoms: _118  and  _121
REMARK   50  A    between atoms: _121  and  _122
REMARK   51  A    between atoms: _125  and  _127
REMARK   52  A    between atoms: _127  and  _128
REMARK   53  A    between atoms: _131  and  _133
REMARK   54  A    between atoms: _133  and  _134
REMARK   55  A    between atoms: _133  and  _136
REMARK   56  A    between atoms: _139  and  _141
REMARK   57  A    between atoms: _141  and  _142
REMARK   58  A    between atoms: _141  and  _144
REMARK   59  A    between atoms: _146  and  _148
REMARK   60  A    between atoms: _148  and  _149
REMARK   61  A    between atoms: _148  and  _151
REMARK   62  A    between atoms: _151  and  _152
REMARK   63  A    between atoms: _155  and  _157
REMARK   64  A    between atoms: _157  and  _158
REMARK   65  A    between atoms: _157  and  _160
REMARK   66  A    between atoms: _160  and  _161
REMARK   67  A    between atoms: _167  and  _169
REMARK   68  A    between atoms: _169  and  _170
REMARK   69  A    between atoms: _169  and  _172
REMARK   70  A    between atoms: _172  and  _173
REMARK   71  A    between atoms: _178  and  _179
REMARK   72  A    between atoms: _181  and  _183
REMARK   73  A    between atoms: _183  and  _184
REMARK   74  A    between atoms: _183  and  _186
REMARK   75  A    between atoms: _186  and  _187
REMARK   76  A    between atoms: _190  and  _192
REMARK   77  A    between atoms: _192  and  _193
REMARK   78  A    between atoms: _192  and  _195
REMARK   79  A    between atoms: _198  and  _200
REMARK   80  A    between atoms: _200  and  _201
REMARK   81  A    between atoms: _200  and  _203
REMARK   82  A    between atoms: _203  and  _204
REMARK   83  A    between atoms: _207  and  _209
REMARK   84  A    between atoms: _209  and  _210
REMARK   85  A    between atoms: _209  and  _212
REMARK   86  A    between atoms: _212  and  _213
REMARK   87  A    between atoms: _213  and  _214
REMARK   88  A    between atoms: _214  and  _215
REMARK   89  A    between atoms: _224  and  _226
REMARK   90  A    between atoms: _226  and  _227
REMARK   91  A    between atoms: _230  and  _232
REMARK   92  A    between atoms: _232  and  _233
REMARK   93  A    between atoms: _232  and  _235
REMARK   94  A    between atoms: _235  and  _236
REMARK   95  A    between atoms: _239  and  _241
REMARK   96  A    between atoms: _241  and  _242
REMARK   97  A    between atoms: _241  and  _244
REMARK   98  A    between atoms: _244  and  _245
REMARK   99  A    between atoms: _248  and  _250
REMARK  100  A    between atoms: _250  and  _251
REMARK  101  A    between atoms: _250  and  _253
REMARK  102  A    between atoms: _253  and  _254
REMARK  103  A    between atoms: _257  and  _259
REMARK  104  A    between atoms: _259  and  _260
REMARK  105  A    between atoms: _259  and  _262
REMARK  106  A    between atoms: _262  and  _263
REMARK  107  A    between atoms: _263  and  _264
REMARK  108  A    between atoms: _267  and  _269
REMARK  109  A    between atoms: _269  and  _270
REMARK  110  A    between atoms: _269  and  _272
REMARK  111  A    between atoms: _272  and  _273
REMARK  112  A    between atoms: _276  and  _278
REMARK  113  A    between atoms: _278  and  _279
REMARK  114  A    between atoms: _278  and  _281
REMARK  115  A    between atoms: _281  and  _282
REMARK  116  A    between atoms: _282  and  _283
REMARK  117  A    between atoms: _283  and  _284
REMARK  118  A    between atoms: _284  and  _285
REMARK  119  A    between atoms: _289  and  _291
REMARK  120  A    between atoms: _291  and  _292
REMARK  121  A    between atoms: _291  and  _294
REMARK  122  A    between atoms: _294  and  _295
REMARK  123  A    between atoms: _298  and  _300
REMARK  124  A    between atoms: _300  and  _301
REMARK  125  A    between atoms: _300  and  _303
REMARK  126  A    between atoms: _303  and  _304
REMARK  127  A    between atoms: _307  and  _309
REMARK  128  A    between atoms: _309  and  _310
REMARK  129  A    between atoms: _309  and  _312
REMARK  130  A    between atoms: _312  and  _313
REMARK  131  A    between atoms: _313  and  _314
REMARK  132  A    between atoms: _316  and  _318
REMARK  133  A    between atoms: _318  and  _319
REMARK  134  A    between atoms: _318  and  _321
REMARK  135  A    between atoms: _321  and  _322
REMARK  136  A    between atoms: _322  and  _323
REMARK  137  A    between atoms: _325  and  _327
REMARK  138  A    between atoms: _327  and  _328
REMARK  139  A    between atoms: _327  and  _330
REMARK  140  A    between atoms: _330  and  _331
REMARK  141  A    between atoms: _336  and  _337
REMARK  142  A    between atoms: _339  and  _341
REMARK  143  A    between atoms: _341  and  _342
REMARK  144  A    between atoms: _341  and  _344
REMARK  145  A    between atoms: _344  and  _345
REMARK  146  A    between atoms: _350  and  _351
REMARK  147  A    between atoms: _353  and  _355
REMARK  148  A    between atoms: _355  and  _356
REMARK  149  A    between atoms: _355  and  _358
REMARK  150  A    between atoms: _361  and  _363
REMARK  151  A    between atoms: _363  and  _364
REMARK  152  A    between atoms: _367  and  _369
REMARK  153  A    between atoms: _369  and  _370
REMARK  154  A    between atoms: _372  and  _374
REMARK  155  A    between atoms: _374  and  _375
REMARK  156  A    between atoms: _374  and  _377
REMARK  157  A    between atoms: _377  and  _378
REMARK  158  A    between atoms: _381  and  _383
REMARK  159  A    between atoms: _383  and  _384
REMARK  160  A    between atoms: _383  and  _386
REMARK  161  A    between atoms: _389  and  _391
REMARK  162  A    between atoms: _391  and  _392
REMARK  163  A    between atoms: _394  and  _396
REMARK  164  A    between atoms: _396  and  _397
REMARK  165  A    between atoms: _399  and  _401
REMARK  166  A    between atoms: _401  and  _402
REMARK  167  A    between atoms: _401  and  _404
REMARK  168  A    between atoms: _404  and  _405
REMARK  169  A    between atoms: _408  and  _410
REMARK  170  A    between atoms: _410  and  _411
REMARK  171  A    between atoms: _410  and  _413
REMARK  172  A    between atoms: _413  and  _414
REMARK  173  A    between atoms: _417  and  _419
REMARK  174  A    between atoms: _419  and  _420
REMARK  175  A    between atoms: _419  and  _422
REMARK  176  A    between atoms: _422  and  _423
REMARK  177  A    between atoms: _429  and  _431
REMARK  178  A    between atoms: _431  and  _432
REMARK  179  A    between atoms: _431  and  _434
REMARK  180  A    between atoms: _434  and  _435
REMARK  181  A    between atoms: _435  and  _436
REMARK  182  A    between atoms: _438  and  _440
REMARK  183  A    between atoms: _440  and  _441
REMARK  184  A    between atoms: _440  and  _443
REMARK  185  A    between atoms: _443  and  _444
REMARK  186  A    between atoms: _450  and  _452
REMARK  187  A    between atoms: _452  and  _453
REMARK  188  A    between atoms: _452  and  _455
REMARK  189  A    between atoms: _455  and  _456
REMARK  190  A    between atoms: _459  and  _461
REMARK  191  A    between atoms: _461  and  _462
REMARK  192  A    between atoms: _461  and  _464
REMARK  193  A    between atoms: _464  and  _465
REMARK  194  A    between atoms: _465  and  _466
REMARK  195  A    between atoms: _471  and  _473
REMARK  196  A    between atoms: _473  and  _474
REMARK  197  A    between atoms: _473  and  _476
REMARK  198  A    between atoms: _476  and  _477
REMARK  199  A    between atoms: _477  and  _478
REMARK  200  A    between atoms: _478  and  _479
REMARK  201  A    between atoms: _479  and  _480
REMARK  202  A    between atoms: _484  and  _486
REMARK  203  A    between atoms: _486  and  _487
REMARK  204  A    between atoms: _486  and  _489
REMARK  205  A    between atoms: _489  and  _490
REMARK  206  A    between atoms: _493  and  _495
REMARK  207  A    between atoms: _495  and  _496
REMARK  208  A    between atoms: _495  and  _498
REMARK  209  A    between atoms: _498  and  _499
REMARK  210  A    between atoms: _504  and  _506
REMARK  211  A    between atoms: _506  and  _507
REMARK  212  A    between atoms: _506  and  _509
REMARK  213  A    between atoms: _509  and  _510
REMARK  214  A    between atoms: _513  and  _515
REMARK  215  A    between atoms: _515  and  _516
REMARK  216  A    between atoms: _515  and  _518
REMARK  217  A    between atoms: _518  and  _519
REMARK  218  A    between atoms: _519  and  _520
REMARK  219  A    between atoms: _520  and  _521
REMARK  220  A    between atoms: _530  and  _532
REMARK  221  A    between atoms: _532  and  _533
REMARK  222  A    between atoms: _532  and  _535
REMARK  223  A    between atoms: _535  and  _536
REMARK  224  A    between atoms: _539  and  _541
REMARK  225  A    between atoms: _541  and  _542
REMARK  226  A    between atoms: _541  and  _544
REMARK  227  A    between atoms: _544  and  _545
REMARK  228  A    between atoms: _545  and  _546
REMARK  229  A    between atoms: _549  and  _551
REMARK  230  A    between atoms: _551  and  _552
REMARK  231  A    between atoms: _551  and  _554
REMARK  232  A    between atoms: _554  and  _555
REMARK  233  A    between atoms: _561  and  _563
REMARK  234  A    between atoms: _563  and  _564
REMARK  235  A    between atoms: _563  and  _566
REMARK  236  A    between atoms: _566  and  _567
REMARK  237  A    between atoms: _571  and  _572
REMARK  238  A    between atoms: _577  and  _579
REMARK  239  A    between atoms: _579  and  _580
REMARK  240  A    between atoms: _579  and  _582
REMARK  241  A    between atoms: _582  and  _583
REMARK  242  A    between atoms: _583  and  _584
REMARK  243  A    between atoms: _589  and  _591
REMARK  244  A    between atoms: _591  and  _592
REMARK  245  A    between atoms: _591  and  _594
REMARK  246  A    between atoms: _597  and  _599
REMARK  247  A    between atoms: _599  and  _600
REMARK  248  A    between atoms: _599  and  _602
REMARK  249  A    between atoms: _602  and  _603
REMARK  250  A    between atoms: _603  and  _604
REMARK  251  A    between atoms: _606  and  _608
REMARK  252  A    between atoms: _608  and  _609
REMARK  253  A    between atoms: _612  and  _614
REMARK  254  A    between atoms: _614  and  _615
REMARK  255  A    between atoms: _614  and  _617
REMARK  256  A    between atoms: _617  and  _618
REMARK  257  A    between atoms: _621  and  _623
REMARK  258  A    between atoms: _623  and  _624
REMARK  259  A    between atoms: _627  and  _629
REMARK  260  A    between atoms: _629  and  _630
REMARK  261  A    between atoms: _629  and  _632
REMARK  262  A    between atoms: _632  and  _633
REMARK  263  A    between atoms: _636  and  _638
REMARK  264  A    between atoms: _638  and  _639
REMARK  265  A    between atoms: _638  and  _641
REMARK  266  A    between atoms: _641  and  _642
REMARK  267  A    between atoms: _645  and  _647
REMARK  268  A    between atoms: _647  and  _648
REMARK  269  A    between atoms: _647  and  _650
REMARK  270  A    between atoms: _650  and  _651
REMARK  271  A    between atoms: _654  and  _656
REMARK  272  A    between atoms: _656  and  _657
REMARK  273  A    between atoms: _656  and  _659
REMARK  274  A    between atoms: _659  and  _660
REMARK  275  A    between atoms: _660  and  _661
REMARK  276  A    between atoms: _666  and  _668
REMARK  277  A    between atoms: _668  and  _669
REMARK  278  A    between atoms: _672  and  _674
REMARK  279  A    between atoms: _674  and  _675
REMARK  280  A    between atoms: _674  and  _677
REMARK  281  A    between atoms: _680  and  _682
REMARK  282  A    between atoms: _682  and  _683
REMARK  283  A    between atoms: _682  and  _685
REMARK  284  A    between atoms: _685  and  _686
REMARK  285  A    between atoms: _689  and  _691
REMARK  286  A    between atoms: _691  and  _692
REMARK  287  A    between atoms: _691  and  _694
REMARK  288  A    between atoms: _694  and  _695
REMARK  289  A    between atoms: _695  and  _696
REMARK                            x       y       z     vdW  Elec       q    Type
REMARK                         _______ _______ _______ _____ _____    ______ ____
ROOT
ATOM      1  O   HOH     1      16.916  66.527  57.705  0.00  0.00    +0.000 OA
ENDROOT
TORSDOF 0
REMARK  Name = ../refined-set-2016/3vjc/3vjc_pocket.pdb
REMARK  289 active torsions:
REMARK  status: ('A' for Active; 'I' for Inactive)
REMARK    1  A    between atoms: _1  and  _3
REMARK    2  A    between atoms: _3  and  _4
REMARK    3  A    between atoms: _3  and  _6
REMARK    4  A    between atoms: _6  and  _7
REMARK    5  A    between atoms: _10  and  _12
REMARK    6  A    between atoms: _12  and  _13
REMARK    7  A    between atoms: _12  and  _15
REMARK    8  A    between atoms: _15  and  _16
REMARK    9  A    between atoms: _21  and  _23
REMARK   10  A    between atoms: _23  and  _24
REMARK   11  A    between atoms: _23  and  _26
REMARK   12  A    between atoms: _26  and  _27
REMARK   13  A    between atoms: _27  and  _28
REMARK   14  A    between atoms: _33  and  _35
REMARK   15  A    between atoms: _35  and  _36
REMARK   16  A    between atoms: _35  and  _38
REMARK   17  A    between atoms: _38  and  _39
REMARK   18  A    between atoms: _42  and  _44
REMARK   19  A    between atoms: _44  and  _45
REMARK   20  A    between atoms: _44  and  _47
REMARK   21  A    between atoms: _47  and  _48
REMARK   22  A    between atoms: _50  and  _52
REMARK   23  A    between atoms: _52  and  _53
REMARK   24  A    between atoms: _52  and  _55
REMARK   25  A    between atoms: _55  and  _56
REMARK   26  A    between atoms: _56  and  _57
REMARK   27  A    between atoms: _57  and  _58
REMARK   28  A    between atoms: _67  and  _69
REMARK   29  A    between atoms: _69  and  _70
REMARK   30  A    between atoms: _69  and  _72
REMARK   31  A    between atoms: _72  and  _73
REMARK   32  A    between atoms: _75  and  _77
REMARK   33  A    between atoms: _77  and  _78
REMARK   34  A    between atoms: _77  and  _80
REMARK   35  A    between atoms: _80  and  _81
REMARK   36  A    between atoms: _87  and  _89
REMARK   37  A    between atoms: _89  and  _90
REMARK   38  A    between atoms: _93  and  _95
REMARK   39  A    between atoms: _95  and  _96
REMARK   40  A    between atoms: _99  and  _101
REMARK   41  A    between atoms: _101  and  _102
REMARK   42  A    between atoms: _101  and  _104
REMARK   43  A    between atoms: _107  and  _109
REMARK   44  A    between atoms: _109  and  _110
REMARK   45  A    between atoms: _109  and  _112
REMARK   46  A    between atoms: _112  and  _113
REMARK   47  A    between atoms: _116  and  _118
REMARK   48  A    between atoms: _118  and  _119
REMARK   49  A    between atoms: _118  and  _121
REMARK   50  A    between atoms: _121  and  _122
REMARK   51  A    between atoms: _125  and  _127
REMARK   52  A    between atoms: _127  and  _128
REMARK   53  A    between atoms: _131  and  _133
REMARK   54  A    between atoms: _133  and  _134
REMARK   55  A    between atoms: _133  and  _136
REMARK   56  A    between atoms: _139  and  _141
REMARK   57  A    between atoms: _141  and  _142
REMARK   58  A    between atoms: _141  and  _144
REMARK   59  A    between atoms: _146  and  _148
REMARK   60  A    between atoms: _148  and  _149
REMARK   61  A    between atoms: _148  and  _151
REMARK   62  A    between atoms: _151  and  _152
REMARK   63  A    between atoms: _155  and  _157
REMARK   64  A    between atoms: _157  and  _158
REMARK   65  A    between atoms: _157  and  _160
REMARK   66  A    between atoms: _160  and  _161
REMARK   67  A    between atoms: _167  and  _169
REMARK   68  A    between atoms: _169  and  _170
REMARK   69  A    between atoms: _169  and  _172
REMARK   70  A    between atoms: _172  and  _173
REMARK   71  A    between atoms: _178  and  _179
REMARK   72  A    between atoms: _181  and  _183
REMARK   73  A    between atoms: _183  and  _184
REMARK   74  A    between atoms: _183  and  _186
REMARK   75  A    between atoms: _186  and  _187
REMARK   76  A    between atoms: _190  and  _192
REMARK   77  A    between atoms: _192  and  _193
REMARK   78  A    between atoms: _192  and  _195
REMARK   79  A    between atoms: _198  and  _200
REMARK   80  A    between atoms: _200  and  _201
REMARK   81  A    between atoms: _200  and  _203
REMARK   82  A    between atoms: _203  and  _204
REMARK   83  A    between atoms: _207  and  _209
REMARK   84  A    between atoms: _209  and  _210
REMARK   85  A    between atoms: _209  and  _212
REMARK   86  A    between atoms: _212  and  _213
REMARK   87  A    between atoms: _213  and  _214
REMARK   88  A    between atoms: _214  and  _215
REMARK   89  A    between atoms: _224  and  _226
REMARK   90  A    between atoms: _226  and  _227
REMARK   91  A    between atoms: _230  and  _232
REMARK   92  A    between atoms: _232  and  _233
REMARK   93  A    between atoms: _232  and  _235
REMARK   94  A    between atoms: _235  and  _236
REMARK   95  A    between atoms: _239  and  _241
REMARK   96  A    between atoms: _241  and  _242
REMARK   97  A    between atoms: _241  and  _244
REMARK   98  A    between atoms: _244  and  _245
REMARK   99  A    between atoms: _248  and  _250
REMARK  100  A    between atoms: _250  and  _251
REMARK  101  A    between atoms: _250  and  _253
REMARK  102  A    between atoms: _253  and  _254
REMARK  103  A    between atoms: _257  and  _259
REMARK  104  A    between atoms: _259  and  _260
REMARK  105  A    between atoms: _259  and  _262
REMARK  106  A    between atoms: _262  and  _263
REMARK  107  A    between atoms: _263  and  _264
REMARK  108  A    between atoms: _267  and  _269
REMARK  109  A    between atoms: _269  and  _270
REMARK  110  A    between atoms: _269  and  _272
REMARK  111  A    between atoms: _272  and  _273
REMARK  112  A    between atoms: _276  and  _278
REMARK  113  A    between atoms: _278  and  _279
REMARK  114  A    between atoms: _278  and  _281
REMARK  115  A    between atoms: _281  and  _282
REMARK  116  A    between atoms: _282  and  _283
REMARK  117  A    between atoms: _283  and  _284
REMARK  118  A    between atoms: _284  and  _285
REMARK  119  A    between atoms: _289  and  _291
REMARK  120  A    between atoms: _291  and  _292
REMARK  121  A    between atoms: _291  and  _294
REMARK  122  A    between atoms: _294  and  _295
REMARK  123  A    between atoms: _298  and  _300
REMARK  124  A    between atoms: _300  and  _301
REMARK  125  A    between atoms: _300  and  _303
REMARK  126  A    between atoms: _303  and  _304
REMARK  127  A    between atoms: _307  and  _309
REMARK  128  A    between atoms: _309  and  _310
REMARK  129  A    between atoms: _309  and  _312
REMARK  130  A    between atoms: _312  and  _313
REMARK  131  A    between atoms: _313  and  _314
REMARK  132  A    between atoms: _316  and  _318
REMARK  133  A    between atoms: _318  and  _319
REMARK  134  A    between atoms: _318  and  _321
REMARK  135  A    between atoms: _321  and  _322
REMARK  136  A    between atoms: _322  and  _323
REMARK  137  A    between atoms: _325  and  _327
REMARK  138  A    between atoms: _327  and  _328
REMARK  139  A    between atoms: _327  and  _330
REMARK  140  A    between atoms: _330  and  _331
REMARK  141  A    between atoms: _336  and  _337
REMARK  142  A    between atoms: _339  and  _341
REMARK  143  A    between atoms: _341  and  _342
REMARK  144  A    between atoms: _341  and  _344
REMARK  145  A    between atoms: _344  and  _345
REMARK  146  A    between atoms: _350  and  _351
REMARK  147  A    between atoms: _353  and  _355
REMARK  148  A    between atoms: _355  and  _356
REMARK  149  A    between atoms: _355  and  _358
REMARK  150  A    between atoms: _361  and  _363
REMARK  151  A    between atoms: _363  and  _364
REMARK  152  A    between atoms: _367  and  _369
REMARK  153  A    between atoms: _369  and  _370
REMARK  154  A    between atoms: _372  and  _374
REMARK  155  A    between atoms: _374  and  _375
REMARK  156  A    between atoms: _374  and  _377
REMARK  157  A    between atoms: _377  and  _378
REMARK  158  A    between atoms: _381  and  _383
REMARK  159  A    between atoms: _383  and  _384
REMARK  160  A    between atoms: _383  and  _386
REMARK  161  A    between atoms: _389  and  _391
REMARK  162  A    between atoms: _391  and  _392
REMARK  163  A    between atoms: _394  and  _396
REMARK  164  A    between atoms: _396  and  _397
REMARK  165  A    between atoms: _399  and  _401
REMARK  166  A    between atoms: _401  and  _402
REMARK  167  A    between atoms: _401  and  _404
REMARK  168  A    between atoms: _404  and  _405
REMARK  169  A    between atoms: _408  and  _410
REMARK  170  A    between atoms: _410  and  _411
REMARK  171  A    between atoms: _410  and  _413
REMARK  172  A    between atoms: _413  and  _414
REMARK  173  A    between atoms: _417  and  _419
REMARK  174  A    between atoms: _419  and  _420
REMARK  175  A    between atoms: _419  and  _422
REMARK  176  A    between atoms: _422  and  _423
REMARK  177  A    between atoms: _429  and  _431
REMARK  178  A    between atoms: _431  and  _432
REMARK  179  A    between atoms: _431  and  _434
REMARK  180  A    between atoms: _434  and  _435
REMARK  181  A    between atoms: _435  and  _436
REMARK  182  A    between atoms: _438  and  _440
REMARK  183  A    between atoms: _440  and  _441
REMARK  184  A    between atoms: _440  and  _443
REMARK  185  A    between atoms: _443  and  _444
REMARK  186  A    between atoms: _450  and  _452
REMARK  187  A    between atoms: _452  and  _453
REMARK  188  A    between atoms: _452  and  _455
REMARK  189  A    between atoms: _455  and  _456
REMARK  190  A    between atoms: _459  and  _461
REMARK  191  A    between atoms: _461  and  _462
REMARK  192  A    between atoms: _461  and  _464
REMARK  193  A    between atoms: _464  and  _465
REMARK  194  A    between atoms: _465  and  _466
REMARK  195  A    between atoms: _471  and  _473
REMARK  196  A    between atoms: _473  and  _474
REMARK  197  A    between atoms: _473  and  _476
REMARK  198  A    between atoms: _476  and  _477
REMARK  199  A    between atoms: _477  and  _478
REMARK  200  A    between atoms: _478  and  _479
REMARK  201  A    between atoms: _479  and  _480
REMARK  202  A    between atoms: _484  and  _486
REMARK  203  A    between atoms: _486  and  _487
REMARK  204  A    between atoms: _486  and  _489
REMARK  205  A    between atoms: _489  and  _490
REMARK  206  A    between atoms: _493  and  _495
REMARK  207  A    between atoms: _495  and  _496
REMARK  208  A    between atoms: _495  and  _498
REMARK  209  A    between atoms: _498  and  _499
REMARK  210  A    between atoms: _504  and  _506
REMARK  211  A    between atoms: _506  and  _507
REMARK  212  A    between atoms: _506  and  _509
REMARK  213  A    between atoms: _509  and  _510
REMARK  214  A    between atoms: _513  and  _515
REMARK  215  A    between atoms: _515  and  _516
REMARK  216  A    between atoms: _515  and  _518
REMARK  217  A    between atoms: _518  and  _519
REMARK  218  A    between atoms: _519  and  _520
REMARK  219  A    between atoms: _520  and  _521
REMARK  220  A    between atoms: _530  and  _532
REMARK  221  A    between atoms: _532  and  _533
REMARK  222  A    between atoms: _532  and  _535
REMARK  223  A    between atoms: _535  and  _536
REMARK  224  A    between atoms: _539  and  _541
REMARK  225  A    between atoms: _541  and  _542
REMARK  226  A    between atoms: _541  and  _544
REMARK  227  A    between atoms: _544  and  _545
REMARK  228  A    between atoms: _545  and  _546
REMARK  229  A    between atoms: _549  and  _551
REMARK  230  A    between atoms: _551  and  _552
REMARK  231  A    between atoms: _551  and  _554
REMARK  232  A    between atoms: _554  and  _555
REMARK  233  A    between atoms: _561  and  _563
REMARK  234  A    between atoms: _563  and  _564
REMARK  235  A    between atoms: _563  and  _566
REMARK  236  A    between atoms: _566  and  _567
REMARK  237  A    between atoms: _571  and  _572
REMARK  238  A    between atoms: _577  and  _579
REMARK  239  A    between atoms: _579  and  _580
REMARK  240  A    between atoms: _579  and  _582
REMARK  241  A    between atoms: _582  and  _583
REMARK  242  A    between atoms: _583  and  _584
REMARK  243  A    between atoms: _589  and  _591
REMARK  244  A    between atoms: _591  and  _592
REMARK  245  A    between atoms: _591  and  _594
REMARK  246  A    between atoms: _597  and  _599
REMARK  247  A    between atoms: _599  and  _600
REMARK  248  A    between atoms: _599  and  _602
REMARK  249  A    between atoms: _602  and  _603
REMARK  250  A    between atoms: _603  and  _604
REMARK  251  A    between atoms: _606  and  _608
REMARK  252  A    between atoms: _608  and  _609
REMARK  253  A    between atoms: _612  and  _614
REMARK  254  A    between atoms: _614  and  _615
REMARK  255  A    between atoms: _614  and  _617
REMARK  256  A    between atoms: _617  and  _618
REMARK  257  A    between atoms: _621  and  _623
REMARK  258  A    between atoms: _623  and  _624
REMARK  259  A    between atoms: _627  and  _629
REMARK  260  A    between atoms: _629  and  _630
REMARK  261  A    between atoms: _629  and  _632
REMARK  262  A    between atoms: _632  and  _633
REMARK  263  A    between atoms: _636  and  _638
REMARK  264  A    between atoms: _638  and  _639
REMARK  265  A    between atoms: _638  and  _641
REMARK  266  A    between atoms: _641  and  _642
REMARK  267  A    between atoms: _645  and  _647
REMARK  268  A    between atoms: _647  and  _648
REMARK  269  A    between atoms: _647  and  _650
REMARK  270  A    between atoms: _650  and  _651
REMARK  271  A    between atoms: _654  and  _656
REMARK  272  A    between atoms: _656  and  _657
REMARK  273  A    between atoms: _656  and  _659
REMARK  274  A    between atoms: _659  and  _660
REMARK  275  A    between atoms: _660  and  _661
REMARK  276  A    between atoms: _666  and  _668
REMARK  277  A    between atoms: _668  and  _669
REMARK  278  A    between atoms: _672  and  _674
REMARK  279  A    between atoms: _674  and  _675
REMARK  280  A    between atoms: _674  and  _677
REMARK  281  A    between atoms: _680  and  _682
REMARK  282  A    between atoms: _682  and  _683
REMARK  283  A    between atoms: _682  and  _685
REMARK  284  A    between atoms: _685  and  _686
REMARK  285  A    between atoms: _689  and  _691
REMARK  286  A    between atoms: _691  and  _692
REMARK  287  A    between atoms: _691  and  _694
REMARK  288  A    between atoms: _694  and  _695
REMARK  289  A    between atoms: _695  and  _696
REMARK                            x       y       z     vdW  Elec       q    Type
REMARK                         _______ _______ _______ _____ _____    ______ ____
ROOT
ATOM      1  O   HOH     1       7.745  62.204  56.239  0.00  0.00    +0.000 OA
ENDROOT
TORSDOF 0
REMARK  Name = ../refined-set-2016/3vjc/3vjc_pocket.pdb
REMARK  289 active torsions:
REMARK  status: ('A' for Active; 'I' for Inactive)
REMARK    1  A    between atoms: _1  and  _3
REMARK    2  A    between atoms: _3  and  _4
REMARK    3  A    between atoms: _3  and  _6
REMARK    4  A    between atoms: _6  and  _7
REMARK    5  A    between atoms: _10  and  _12
REMARK    6  A    between atoms: _12  and  _13
REMARK    7  A    between atoms: _12  and  _15
REMARK    8  A    between atoms: _15  and  _16
REMARK    9  A    between atoms: _21  and  _23
REMARK   10  A    between atoms: _23  and  _24
REMARK   11  A    between atoms: _23  and  _26
REMARK   12  A    between atoms: _26  and  _27
REMARK   13  A    between atoms: _27  and  _28
REMARK   14  A    between atoms: _33  and  _35
REMARK   15  A    between atoms: _35  and  _36
REMARK   16  A    between atoms: _35  and  _38
REMARK   17  A    between atoms: _38  and  _39
REMARK   18  A    between atoms: _42  and  _44
REMARK   19  A    between atoms: _44  and  _45
REMARK   20  A    between atoms: _44  and  _47
REMARK   21  A    between atoms: _47  and  _48
REMARK   22  A    between atoms: _50  and  _52
REMARK   23  A    between atoms: _52  and  _53
REMARK   24  A    between atoms: _52  and  _55
REMARK   25  A    between atoms: _55  and  _56
REMARK   26  A    between atoms: _56  and  _57
REMARK   27  A    between atoms: _57  and  _58
REMARK   28  A    between atoms: _67  and  _69
REMARK   29  A    between atoms: _69  and  _70
REMARK   30  A    between atoms: _69  and  _72
REMARK   31  A    between atoms: _72  and  _73
REMARK   32  A    between atoms: _75  and  _77
REMARK   33  A    between atoms: _77  and  _78
REMARK   34  A    between atoms: _77  and  _80
REMARK   35  A    between atoms: _80  and  _81
REMARK   36  A    between atoms: _87  and  _89
REMARK   37  A    between atoms: _89  and  _90
REMARK   38  A    between atoms: _93  and  _95
REMARK   39  A    between atoms: _95  and  _96
REMARK   40  A    between atoms: _99  and  _101
REMARK   41  A    between atoms: _101  and  _102
REMARK   42  A    between atoms: _101  and  _104
REMARK   43  A    between atoms: _107  and  _109
REMARK   44  A    between atoms: _109  and  _110
REMARK   45  A    between atoms: _109  and  _112
REMARK   46  A    between atoms: _112  and  _113
REMARK   47  A    between atoms: _116  and  _118
REMARK   48  A    between atoms: _118  and  _119
REMARK   49  A    between atoms: _118  and  _121
REMARK   50  A    between atoms: _121  and  _122
REMARK   51  A    between atoms: _125  and  _127
REMARK   52  A    between atoms: _127  and  _128
REMARK   53  A    between atoms: _131  and  _133
REMARK   54  A    between atoms: _133  and  _134
REMARK   55  A    between atoms: _133  and  _136
REMARK   56  A    between atoms: _139  and  _141
REMARK   57  A    between atoms: _141  and  _142
REMARK   58  A    between atoms: _141  and  _144
REMARK   59  A    between atoms: _146  and  _148
REMARK   60  A    between atoms: _148  and  _149
REMARK   61  A    between atoms: _148  and  _151
REMARK   62  A    between atoms: _151  and  _152
REMARK   63  A    between atoms: _155  and  _157
REMARK   64  A    between atoms: _157  and  _158
REMARK   65  A    between atoms: _157  and  _160
REMARK   66  A    between atoms: _160  and  _161
REMARK   67  A    between atoms: _167  and  _169
REMARK   68  A    between atoms: _169  and  _170
REMARK   69  A    between atoms: _169  and  _172
REMARK   70  A    between atoms: _172  and  _173
REMARK   71  A    between atoms: _178  and  _179
REMARK   72  A    between atoms: _181  and  _183
REMARK   73  A    between atoms: _183  and  _184
REMARK   74  A    between atoms: _183  and  _186
REMARK   75  A    between atoms: _186  and  _187
REMARK   76  A    between atoms: _190  and  _192
REMARK   77  A    between atoms: _192  and  _193
REMARK   78  A    between atoms: _192  and  _195
REMARK   79  A    between atoms: _198  and  _200
REMARK   80  A    between atoms: _200  and  _201
REMARK   81  A    between atoms: _200  and  _203
REMARK   82  A    between atoms: _203  and  _204
REMARK   83  A    between atoms: _207  and  _209
REMARK   84  A    between atoms: _209  and  _210
REMARK   85  A    between atoms: _209  and  _212
REMARK   86  A    between atoms: _212  and  _213
REMARK   87  A    between atoms: _213  and  _214
REMARK   88  A    between atoms: _214  and  _215
REMARK   89  A    between atoms: _224  and  _226
REMARK   90  A    between atoms: _226  and  _227
REMARK   91  A    between atoms: _230  and  _232
REMARK   92  A    between atoms: _232  and  _233
REMARK   93  A    between atoms: _232  and  _235
REMARK   94  A    between atoms: _235  and  _236
REMARK   95  A    between atoms: _239  and  _241
REMARK   96  A    between atoms: _241  and  _242
REMARK   97  A    between atoms: _241  and  _244
REMARK   98  A    between atoms: _244  and  _245
REMARK   99  A    between atoms: _248  and  _250
REMARK  100  A    between atoms: _250  and  _251
REMARK  101  A    between atoms: _250  and  _253
REMARK  102  A    between atoms: _253  and  _254
REMARK  103  A    between atoms: _257  and  _259
REMARK  104  A    between atoms: _259  and  _260
REMARK  105  A    between atoms: _259  and  _262
REMARK  106  A    between atoms: _262  and  _263
REMARK  107  A    between atoms: _263  and  _264
REMARK  108  A    between atoms: _267  and  _269
REMARK  109  A    between atoms: _269  and  _270
REMARK  110  A    between atoms: _269  and  _272
REMARK  111  A    between atoms: _272  and  _273
REMARK  112  A    between atoms: _276  and  _278
REMARK  113  A    between atoms: _278  and  _279
REMARK  114  A    between atoms: _278  and  _281
REMARK  115  A    between atoms: _281  and  _282
REMARK  116  A    between atoms: _282  and  _283
REMARK  117  A    between atoms: _283  and  _284
REMARK  118  A    between atoms: _284  and  _285
REMARK  119  A    between atoms: _289  and  _291
REMARK  120  A    between atoms: _291  and  _292
REMARK  121  A    between atoms: _291  and  _294
REMARK  122  A    between atoms: _294  and  _295
REMARK  123  A    between atoms: _298  and  _300
REMARK  124  A    between atoms: _300  and  _301
REMARK  125  A    between atoms: _300  and  _303
REMARK  126  A    between atoms: _303  and  _304
REMARK  127  A    between atoms: _307  and  _309
REMARK  128  A    between atoms: _309  and  _310
REMARK  129  A    between atoms: _309  and  _312
REMARK  130  A    between atoms: _312  and  _313
REMARK  131  A    between atoms: _313  and  _314
REMARK  132  A    between atoms: _316  and  _318
REMARK  133  A    between atoms: _318  and  _319
REMARK  134  A    between atoms: _318  and  _321
REMARK  135  A    between atoms: _321  and  _322
REMARK  136  A    between atoms: _322  and  _323
REMARK  137  A    between atoms: _325  and  _327
REMARK  138  A    between atoms: _327  and  _328
REMARK  139  A    between atoms: _327  and  _330
REMARK  140  A    between atoms: _330  and  _331
REMARK  141  A    between atoms: _336  and  _337
REMARK  142  A    between atoms: _339  and  _341
REMARK  143  A    between atoms: _341  and  _342
REMARK  144  A    between atoms: _341  and  _344
REMARK  145  A    between atoms: _344  and  _345
REMARK  146  A    between atoms: _350  and  _351
REMARK  147  A    between atoms: _353  and  _355
REMARK  148  A    between atoms: _355  and  _356
REMARK  149  A    between atoms: _355  and  _358
REMARK  150  A    between atoms: _361  and  _363
REMARK  151  A    between atoms: _363  and  _364
REMARK  152  A    between atoms: _367  and  _369
REMARK  153  A    between atoms: _369  and  _370
REMARK  154  A    between atoms: _372  and  _374
REMARK  155  A    between atoms: _374  and  _375
REMARK  156  A    between atoms: _374  and  _377
REMARK  157  A    between atoms: _377  and  _378
REMARK  158  A    between atoms: _381  and  _383
REMARK  159  A    between atoms: _383  and  _384
REMARK  160  A    between atoms: _383  and  _386
REMARK  161  A    between atoms: _389  and  _391
REMARK  162  A    between atoms: _391  and  _392
REMARK  163  A    between atoms: _394  and  _396
REMARK  164  A    between atoms: _396  and  _397
REMARK  165  A    between atoms: _399  and  _401
REMARK  166  A    between atoms: _401  and  _402
REMARK  167  A    between atoms: _401  and  _404
REMARK  168  A    between atoms: _404  and  _405
REMARK  169  A    between atoms: _408  and  _410
REMARK  170  A    between atoms: _410  and  _411
REMARK  171  A    between atoms: _410  and  _413
REMARK  172  A    between atoms: _413  and  _414
REMARK  173  A    between atoms: _417  and  _419
REMARK  174  A    between atoms: _419  and  _420
REMARK  175  A    between atoms: _419  and  _422
REMARK  176  A    between atoms: _422  and  _423
REMARK  177  A    between atoms: _429  and  _431
REMARK  178  A    between atoms: _431  and  _432
REMARK  179  A    between atoms: _431  and  _434
REMARK  180  A    between atoms: _434  and  _435
REMARK  181  A    between atoms: _435  and  _436
REMARK  182  A    between atoms: _438  and  _440
REMARK  183  A    between atoms: _440  and  _441
REMARK  184  A    between atoms: _440  and  _443
REMARK  185  A    between atoms: _443  and  _444
REMARK  186  A    between atoms: _450  and  _452
REMARK  187  A    between atoms: _452  and  _453
REMARK  188  A    between atoms: _452  and  _455
REMARK  189  A    between atoms: _455  and  _456
REMARK  190  A    between atoms: _459  and  _461
REMARK  191  A    between atoms: _461  and  _462
REMARK  192  A    between atoms: _461  and  _464
REMARK  193  A    between atoms: _464  and  _465
REMARK  194  A    between atoms: _465  and  _466
REMARK  195  A    between atoms: _471  and  _473
REMARK  196  A    between atoms: _473  and  _474
REMARK  197  A    between atoms: _473  and  _476
REMARK  198  A    between atoms: _476  and  _477
REMARK  199  A    between atoms: _477  and  _478
REMARK  200  A    between atoms: _478  and  _479
REMARK  201  A    between atoms: _479  and  _480
REMARK  202  A    between atoms: _484  and  _486
REMARK  203  A    between atoms: _486  and  _487
REMARK  204  A    between atoms: _486  and  _489
REMARK  205  A    between atoms: _489  and  _490
REMARK  206  A    between atoms: _493  and  _495
REMARK  207  A    between atoms: _495  and  _496
REMARK  208  A    between atoms: _495  and  _498
REMARK  209  A    between atoms: _498  and  _499
REMARK  210  A    between atoms: _504  and  _506
REMARK  211  A    between atoms: _506  and  _507
REMARK  212  A    between atoms: _506  and  _509
REMARK  213  A    between atoms: _509  and  _510
REMARK  214  A    between atoms: _513  and  _515
REMARK  215  A    between atoms: _515  and  _516
REMARK  216  A    between atoms: _515  and  _518
REMARK  217  A    between atoms: _518  and  _519
REMARK  218  A    between atoms: _519  and  _520
REMARK  219  A    between atoms: _520  and  _521
REMARK  220  A    between atoms: _530  and  _532
REMARK  221  A    between atoms: _532  and  _533
REMARK  222  A    between atoms: _532  and  _535
REMARK  223  A    between atoms: _535  and  _536
REMARK  224  A    between atoms: _539  and  _541
REMARK  225  A    between atoms: _541  and  _542
REMARK  226  A    between atoms: _541  and  _544
REMARK  227  A    between atoms: _544  and  _545
REMARK  228  A    between atoms: _545  and  _546
REMARK  229  A    between atoms: _549  and  _551
REMARK  230  A    between atoms: _551  and  _552
REMARK  231  A    between atoms: _551  and  _554
REMARK  232  A    between atoms: _554  and  _555
REMARK  233  A    between atoms: _561  and  _563
REMARK  234  A    between atoms: _563  and  _564
REMARK  235  A    between atoms: _563  and  _566
REMARK  236  A    between atoms: _566  and  _567
REMARK  237  A    between atoms: _571  and  _572
REMARK  238  A    between atoms: _577  and  _579
REMARK  239  A    between atoms: _579  and  _580
REMARK  240  A    between atoms: _579  and  _582
REMARK  241  A    between atoms: _582  and  _583
REMARK  242  A    between atoms: _583  and  _584
REMARK  243  A    between atoms: _589  and  _591
REMARK  244  A    between atoms: _591  and  _592
REMARK  245  A    between atoms: _591  and  _594
REMARK  246  A    between atoms: _597  and  _599
REMARK  247  A    between atoms: _599  and  _600
REMARK  248  A    between atoms: _599  and  _602
REMARK  249  A    between atoms: _602  and  _603
REMARK  250  A    between atoms: _603  and  _604
REMARK  251  A    between atoms: _606  and  _608
REMARK  252  A    between atoms: _608  and  _609
REMARK  253  A    between atoms: _612  and  _614
REMARK  254  A    between atoms: _614  and  _615
REMARK  255  A    between atoms: _614  and  _617
REMARK  256  A    between atoms: _617  and  _618
REMARK  257  A    between atoms: _621  and  _623
REMARK  258  A    between atoms: _623  and  _624
REMARK  259  A    between atoms: _627  and  _629
REMARK  260  A    between atoms: _629  and  _630
REMARK  261  A    between atoms: _629  and  _632
REMARK  262  A    between atoms: _632  and  _633
REMARK  263  A    between atoms: _636  and  _638
REMARK  264  A    between atoms: _638  and  _639
REMARK  265  A    between atoms: _638  and  _641
REMARK  266  A    between atoms: _641  and  _642
REMARK  267  A    between atoms: _645  and  _647
REMARK  268  A    between atoms: _647  and  _648
REMARK  269  A    between atoms: _647  and  _650
REMARK  270  A    between atoms: _650  and  _651
REMARK  271  A    between atoms: _654  and  _656
REMARK  272  A    between atoms: _656  and  _657
REMARK  273  A    between atoms: _656  and  _659
REMARK  274  A    between atoms: _659  and  _660
REMARK  275  A    between atoms: _660  and  _661
REMARK  276  A    between atoms: _666  and  _668
REMARK  277  A    between atoms: _668  and  _669
REMARK  278  A    between atoms: _672  and  _674
REMARK  279  A    between atoms: _674  and  _675
REMARK  280  A    between atoms: _674  and  _677
REMARK  281  A    between atoms: _680  and  _682
REMARK  282  A    between atoms: _682  and  _683
REMARK  283  A    between atoms: _682  and  _685
REMARK  284  A    between atoms: _685  and  _686
REMARK  285  A    between atoms: _689  and  _691
REMARK  286  A    between atoms: _691  and  _692
REMARK  287  A    between atoms: _691  and  _694
REMARK  288  A    between atoms: _694  and  _695
REMARK  289  A    between atoms: _695  and  _696
REMARK                            x       y       z     vdW  Elec       q    Type
REMARK                         _______ _______ _______ _____ _____    ______ ____
ROOT
ATOM      1  O   HOH     1      13.483  65.386  58.222  0.00  0.00    +0.000 OA
ENDROOT
TORSDOF 0
REMARK  Name = ../refined-set-2016/3vjc/3vjc_pocket.pdb
REMARK  289 active torsions:
REMARK  status: ('A' for Active; 'I' for Inactive)
REMARK    1  A    between atoms: _1  and  _3
REMARK    2  A    between atoms: _3  and  _4
REMARK    3  A    between atoms: _3  and  _6
REMARK    4  A    between atoms: _6  and  _7
REMARK    5  A    between atoms: _10  and  _12
REMARK    6  A    between atoms: _12  and  _13
REMARK    7  A    between atoms: _12  and  _15
REMARK    8  A    between atoms: _15  and  _16
REMARK    9  A    between atoms: _21  and  _23
REMARK   10  A    between atoms: _23  and  _24
REMARK   11  A    between atoms: _23  and  _26
REMARK   12  A    between atoms: _26  and  _27
REMARK   13  A    between atoms: _27  and  _28
REMARK   14  A    between atoms: _33  and  _35
REMARK   15  A    between atoms: _35  and  _36
REMARK   16  A    between atoms: _35  and  _38
REMARK   17  A    between atoms: _38  and  _39
REMARK   18  A    between atoms: _42  and  _44
REMARK   19  A    between atoms: _44  and  _45
REMARK   20  A    between atoms: _44  and  _47
REMARK   21  A    between atoms: _47  and  _48
REMARK   22  A    between atoms: _50  and  _52
REMARK   23  A    between atoms: _52  and  _53
REMARK   24  A    between atoms: _52  and  _55
REMARK   25  A    between atoms: _55  and  _56
REMARK   26  A    between atoms: _56  and  _57
REMARK   27  A    between atoms: _57  and  _58
REMARK   28  A    between atoms: _67  and  _69
REMARK   29  A    between atoms: _69  and  _70
REMARK   30  A    between atoms: _69  and  _72
REMARK   31  A    between atoms: _72  and  _73
REMARK   32  A    between atoms: _75  and  _77
REMARK   33  A    between atoms: _77  and  _78
REMARK   34  A    between atoms: _77  and  _80
REMARK   35  A    between atoms: _80  and  _81
REMARK   36  A    between atoms: _87  and  _89
REMARK   37  A    between atoms: _89  and  _90
REMARK   38  A    between atoms: _93  and  _95
REMARK   39  A    between atoms: _95  and  _96
REMARK   40  A    between atoms: _99  and  _101
REMARK   41  A    between atoms: _101  and  _102
REMARK   42  A    between atoms: _101  and  _104
REMARK   43  A    between atoms: _107  and  _109
REMARK   44  A    between atoms: _109  and  _110
REMARK   45  A    between atoms: _109  and  _112
REMARK   46  A    between atoms: _112  and  _113
REMARK   47  A    between atoms: _116  and  _118
REMARK   48  A    between atoms: _118  and  _119
REMARK   49  A    between atoms: _118  and  _121
REMARK   50  A    between atoms: _121  and  _122
REMARK   51  A    between atoms: _125  and  _127
REMARK   52  A    between atoms: _127  and  _128
REMARK   53  A    between atoms: _131  and  _133
REMARK   54  A    between atoms: _133  and  _134
REMARK   55  A    between atoms: _133  and  _136
REMARK   56  A    between atoms: _139  and  _141
REMARK   57  A    between atoms: _141  and  _142
REMARK   58  A    between atoms: _141  and  _144
REMARK   59  A    between atoms: _146  and  _148
REMARK   60  A    between atoms: _148  and  _149
REMARK   61  A    between atoms: _148  and  _151
REMARK   62  A    between atoms: _151  and  _152
REMARK   63  A    between atoms: _155  and  _157
REMARK   64  A    between atoms: _157  and  _158
REMARK   65  A    between atoms: _157  and  _160
REMARK   66  A    between atoms: _160  and  _161
REMARK   67  A    between atoms: _167  and  _169
REMARK   68  A    between atoms: _169  and  _170
REMARK   69  A    between atoms: _169  and  _172
REMARK   70  A    between atoms: _172  and  _173
REMARK   71  A    between atoms: _178  and  _179
REMARK   72  A    between atoms: _181  and  _183
REMARK   73  A    between atoms: _183  and  _184
REMARK   74  A    between atoms: _183  and  _186
REMARK   75  A    between atoms: _186  and  _187
REMARK   76  A    between atoms: _190  and  _192
REMARK   77  A    between atoms: _192  and  _193
REMARK   78  A    between atoms: _192  and  _195
REMARK   79  A    between atoms: _198  and  _200
REMARK   80  A    between atoms: _200  and  _201
REMARK   81  A    between atoms: _200  and  _203
REMARK   82  A    between atoms: _203  and  _204
REMARK   83  A    between atoms: _207  and  _209
REMARK   84  A    between atoms: _209  and  _210
REMARK   85  A    between atoms: _209  and  _212
REMARK   86  A    between atoms: _212  and  _213
REMARK   87  A    between atoms: _213  and  _214
REMARK   88  A    between atoms: _214  and  _215
REMARK   89  A    between atoms: _224  and  _226
REMARK   90  A    between atoms: _226  and  _227
REMARK   91  A    between atoms: _230  and  _232
REMARK   92  A    between atoms: _232  and  _233
REMARK   93  A    between atoms: _232  and  _235
REMARK   94  A    between atoms: _235  and  _236
REMARK   95  A    between atoms: _239  and  _241
REMARK   96  A    between atoms: _241  and  _242
REMARK   97  A    between atoms: _241  and  _244
REMARK   98  A    between atoms: _244  and  _245
REMARK   99  A    between atoms: _248  and  _250
REMARK  100  A    between atoms: _250  and  _251
REMARK  101  A    between atoms: _250  and  _253
REMARK  102  A    between atoms: _253  and  _254
REMARK  103  A    between atoms: _257  and  _259
REMARK  104  A    between atoms: _259  and  _260
REMARK  105  A    between atoms: _259  and  _262
REMARK  106  A    between atoms: _262  and  _263
REMARK  107  A    between atoms: _263  and  _264
REMARK  108  A    between atoms: _267  and  _269
REMARK  109  A    between atoms: _269  and  _270
REMARK  110  A    between atoms: _269  and  _272
REMARK  111  A    between atoms: _272  and  _273
REMARK  112  A    between atoms: _276  and  _278
REMARK  113  A    between atoms: _278  and  _279
REMARK  114  A    between atoms: _278  and  _281
REMARK  115  A    between atoms: _281  and  _282
REMARK  116  A    between atoms: _282  and  _283
REMARK  117  A    between atoms: _283  and  _284
REMARK  118  A    between atoms: _284  and  _285
REMARK  119  A    between atoms: _289  and  _291
REMARK  120  A    between atoms: _291  and  _292
REMARK  121  A    between atoms: _291  and  _294
REMARK  122  A    between atoms: _294  and  _295
REMARK  123  A    between atoms: _298  and  _300
REMARK  124  A    between atoms: _300  and  _301
REMARK  125  A    between atoms: _300  and  _303
REMARK  126  A    between atoms: _303  and  _304
REMARK  127  A    between atoms: _307  and  _309
REMARK  128  A    between atoms: _309  and  _310
REMARK  129  A    between atoms: _309  and  _312
REMARK  130  A    between atoms: _312  and  _313
REMARK  131  A    between atoms: _313  and  _314
REMARK  132  A    between atoms: _316  and  _318
REMARK  133  A    between atoms: _318  and  _319
REMARK  134  A    between atoms: _318  and  _321
REMARK  135  A    between atoms: _321  and  _322
REMARK  136  A    between atoms: _322  and  _323
REMARK  137  A    between atoms: _325  and  _327
REMARK  138  A    between atoms: _327  and  _328
REMARK  139  A    between atoms: _327  and  _330
REMARK  140  A    between atoms: _330  and  _331
REMARK  141  A    between atoms: _336  and  _337
REMARK  142  A    between atoms: _339  and  _341
REMARK  143  A    between atoms: _341  and  _342
REMARK  144  A    between atoms: _341  and  _344
REMARK  145  A    between atoms: _344  and  _345
REMARK  146  A    between atoms: _350  and  _351
REMARK  147  A    between atoms: _353  and  _355
REMARK  148  A    between atoms: _355  and  _356
REMARK  149  A    between atoms: _355  and  _358
REMARK  150  A    between atoms: _361  and  _363
REMARK  151  A    between atoms: _363  and  _364
REMARK  152  A    between atoms: _367  and  _369
REMARK  153  A    between atoms: _369  and  _370
REMARK  154  A    between atoms: _372  and  _374
REMARK  155  A    between atoms: _374  and  _375
REMARK  156  A    between atoms: _374  and  _377
REMARK  157  A    between atoms: _377  and  _378
REMARK  158  A    between atoms: _381  and  _383
REMARK  159  A    between atoms: _383  and  _384
REMARK  160  A    between atoms: _383  and  _386
REMARK  161  A    between atoms: _389  and  _391
REMARK  162  A    between atoms: _391  and  _392
REMARK  163  A    between atoms: _394  and  _396
REMARK  164  A    between atoms: _396  and  _397
REMARK  165  A    between atoms: _399  and  _401
REMARK  166  A    between atoms: _401  and  _402
REMARK  167  A    between atoms: _401  and  _404
REMARK  168  A    between atoms: _404  and  _405
REMARK  169  A    between atoms: _408  and  _410
REMARK  170  A    between atoms: _410  and  _411
REMARK  171  A    between atoms: _410  and  _413
REMARK  172  A    between atoms: _413  and  _414
REMARK  173  A    between atoms: _417  and  _419
REMARK  174  A    between atoms: _419  and  _420
REMARK  175  A    between atoms: _419  and  _422
REMARK  176  A    between atoms: _422  and  _423
REMARK  177  A    between atoms: _429  and  _431
REMARK  178  A    between atoms: _431  and  _432
REMARK  179  A    between atoms: _431  and  _434
REMARK  180  A    between atoms: _434  and  _435
REMARK  181  A    between atoms: _435  and  _436
REMARK  182  A    between atoms: _438  and  _440
REMARK  183  A    between atoms: _440  and  _441
REMARK  184  A    between atoms: _440  and  _443
REMARK  185  A    between atoms: _443  and  _444
REMARK  186  A    between atoms: _450  and  _452
REMARK  187  A    between atoms: _452  and  _453
REMARK  188  A    between atoms: _452  and  _455
REMARK  189  A    between atoms: _455  and  _456
REMARK  190  A    between atoms: _459  and  _461
REMARK  191  A    between atoms: _461  and  _462
REMARK  192  A    between atoms: _461  and  _464
REMARK  193  A    between atoms: _464  and  _465
REMARK  194  A    between atoms: _465  and  _466
REMARK  195  A    between atoms: _471  and  _473
REMARK  196  A    between atoms: _473  and  _474
REMARK  197  A    between atoms: _473  and  _476
REMARK  198  A    between atoms: _476  and  _477
REMARK  199  A    between atoms: _477  and  _478
REMARK  200  A    between atoms: _478  and  _479
REMARK  201  A    between atoms: _479  and  _480
REMARK  202  A    between atoms: _484  and  _486
REMARK  203  A    between atoms: _486  and  _487
REMARK  204  A    between atoms: _486  and  _489
REMARK  205  A    between atoms: _489  and  _490
REMARK  206  A    between atoms: _493  and  _495
REMARK  207  A    between atoms: _495  and  _496
REMARK  208  A    between atoms: _495  and  _498
REMARK  209  A    between atoms: _498  and  _499
REMARK  210  A    between atoms: _504  and  _506
REMARK  211  A    between atoms: _506  and  _507
REMARK  212  A    between atoms: _506  and  _509
REMARK  213  A    between atoms: _509  and  _510
REMARK  214  A    between atoms: _513  and  _515
REMARK  215  A    between atoms: _515  and  _516
REMARK  216  A    between atoms: _515  and  _518
REMARK  217  A    between atoms: _518  and  _519
REMARK  218  A    between atoms: _519  and  _520
REMARK  219  A    between atoms: _520  and  _521
REMARK  220  A    between atoms: _530  and  _532
REMARK  221  A    between atoms: _532  and  _533
REMARK  222  A    between atoms: _532  and  _535
REMARK  223  A    between atoms: _535  and  _536
REMARK  224  A    between atoms: _539  and  _541
REMARK  225  A    between atoms: _541  and  _542
REMARK  226  A    between atoms: _541  and  _544
REMARK  227  A    between atoms: _544  and  _545
REMARK  228  A    between atoms: _545  and  _546
REMARK  229  A    between atoms: _549  and  _551
REMARK  230  A    between atoms: _551  and  _552
REMARK  231  A    between atoms: _551  and  _554
REMARK  232  A    between atoms: _554  and  _555
REMARK  233  A    between atoms: _561  and  _563
REMARK  234  A    between atoms: _563  and  _564
REMARK  235  A    between atoms: _563  and  _566
REMARK  236  A    between atoms: _566  and  _567
REMARK  237  A    between atoms: _571  and  _572
REMARK  238  A    between atoms: _577  and  _579
REMARK  239  A    between atoms: _579  and  _580
REMARK  240  A    between atoms: _579  and  _582
REMARK  241  A    between atoms: _582  and  _583
REMARK  242  A    between atoms: _583  and  _584
REMARK  243  A    between atoms: _589  and  _591
REMARK  244  A    between atoms: _591  and  _592
REMARK  245  A    between atoms: _591  and  _594
REMARK  246  A    between atoms: _597  and  _599
REMARK  247  A    between atoms: _599  and  _600
REMARK  248  A    between atoms: _599  and  _602
REMARK  249  A    between atoms: _602  and  _603
REMARK  250  A    between atoms: _603  and  _604
REMARK  251  A    between atoms: _606  and  _608
REMARK  252  A    between atoms: _608  and  _609
REMARK  253  A    between atoms: _612  and  _614
REMARK  254  A    between atoms: _614  and  _615
REMARK  255  A    between atoms: _614  and  _617
REMARK  256  A    between atoms: _617  and  _618
REMARK  257  A    between atoms: _621  and  _623
REMARK  258  A    between atoms: _623  and  _624
REMARK  259  A    between atoms: _627  and  _629
REMARK  260  A    between atoms: _629  and  _630
REMARK  261  A    between atoms: _629  and  _632
REMARK  262  A    between atoms: _632  and  _633
REMARK  263  A    between atoms: _636  and  _638
REMARK  264  A    between atoms: _638  and  _639
REMARK  265  A    between atoms: _638  and  _641
REMARK  266  A    between atoms: _641  and  _642
REMARK  267  A    between atoms: _645  and  _647
REMARK  268  A    between atoms: _647  and  _648
REMARK  269  A    between atoms: _647  and  _650
REMARK  270  A    between atoms: _650  and  _651
REMARK  271  A    between atoms: _654  and  _656
REMARK  272  A    between atoms: _656  and  _657
REMARK  273  A    between atoms: _656  and  _659
REMARK  274  A    between atoms: _659  and  _660
REMARK  275  A    between atoms: _660  and  _661
REMARK  276  A    between atoms: _666  and  _668
REMARK  277  A    between atoms: _668  and  _669
REMARK  278  A    between atoms: _672  and  _674
REMARK  279  A    between atoms: _674  and  _675
REMARK  280  A    between atoms: _674  and  _677
REMARK  281  A    between atoms: _680  and  _682
REMARK  282  A    between atoms: _682  and  _683
REMARK  283  A    between atoms: _682  and  _685
REMARK  284  A    between atoms: _685  and  _686
REMARK  285  A    between atoms: _689  and  _691
REMARK  286  A    between atoms: _691  and  _692
REMARK  287  A    between atoms: _691  and  _694
REMARK  288  A    between atoms: _694  and  _695
REMARK  289  A    between atoms: _695  and  _696
REMARK                            x       y       z     vdW  Elec       q    Type
REMARK                         _______ _______ _______ _____ _____    ______ ____
ROOT
ATOM      1  O   HOH     1      18.529  60.999  60.288  0.00  0.00    +0.000 OA
ENDROOT
TORSDOF 0
REMARK  Name = ../refined-set-2016/3vjc/3vjc_pocket.pdb
REMARK  289 active torsions:
REMARK  status: ('A' for Active; 'I' for Inactive)
REMARK    1  A    between atoms: _1  and  _3
REMARK    2  A    between atoms: _3  and  _4
REMARK    3  A    between atoms: _3  and  _6
REMARK    4  A    between atoms: _6  and  _7
REMARK    5  A    between atoms: _10  and  _12
REMARK    6  A    between atoms: _12  and  _13
REMARK    7  A    between atoms: _12  and  _15
REMARK    8  A    between atoms: _15  and  _16
REMARK    9  A    between atoms: _21  and  _23
REMARK   10  A    between atoms: _23  and  _24
REMARK   11  A    between atoms: _23  and  _26
REMARK   12  A    between atoms: _26  and  _27
REMARK   13  A    between atoms: _27  and  _28
REMARK   14  A    between atoms: _33  and  _35
REMARK   15  A    between atoms: _35  and  _36
REMARK   16  A    between atoms: _35  and  _38
REMARK   17  A    between atoms: _38  and  _39
REMARK   18  A    between atoms: _42  and  _44
REMARK   19  A    between atoms: _44  and  _45
REMARK   20  A    between atoms: _44  and  _47
REMARK   21  A    between atoms: _47  and  _48
REMARK   22  A    between atoms: _50  and  _52
REMARK   23  A    between atoms: _52  and  _53
REMARK   24  A    between atoms: _52  and  _55
REMARK   25  A    between atoms: _55  and  _56
REMARK   26  A    between atoms: _56  and  _57
REMARK   27  A    between atoms: _57  and  _58
REMARK   28  A    between atoms: _67  and  _69
REMARK   29  A    between atoms: _69  and  _70
REMARK   30  A    between atoms: _69  and  _72
REMARK   31  A    between atoms: _72  and  _73
REMARK   32  A    between atoms: _75  and  _77
REMARK   33  A    between atoms: _77  and  _78
REMARK   34  A    between atoms: _77  and  _80
REMARK   35  A    between atoms: _80  and  _81
REMARK   36  A    between atoms: _87  and  _89
REMARK   37  A    between atoms: _89  and  _90
REMARK   38  A    between atoms: _93  and  _95
REMARK   39  A    between atoms: _95  and  _96
REMARK   40  A    between atoms: _99  and  _101
REMARK   41  A    between atoms: _101  and  _102
REMARK   42  A    between atoms: _101  and  _104
REMARK   43  A    between atoms: _107  and  _109
REMARK   44  A    between atoms: _109  and  _110
REMARK   45  A    between atoms: _109  and  _112
REMARK   46  A    between atoms: _112  and  _113
REMARK   47  A    between atoms: _116  and  _118
REMARK   48  A    between atoms: _118  and  _119
REMARK   49  A    between atoms: _118  and  _121
REMARK   50  A    between atoms: _121  and  _122
REMARK   51  A    between atoms: _125  and  _127
REMARK   52  A    between atoms: _127  and  _128
REMARK   53  A    between atoms: _131  and  _133
REMARK   54  A    between atoms: _133  and  _134
REMARK   55  A    between atoms: _133  and  _136
REMARK   56  A    between atoms: _139  and  _141
REMARK   57  A    between atoms: _141  and  _142
REMARK   58  A    between atoms: _141  and  _144
REMARK   59  A    between atoms: _146  and  _148
REMARK   60  A    between atoms: _148  and  _149
REMARK   61  A    between atoms: _148  and  _151
REMARK   62  A    between atoms: _151  and  _152
REMARK   63  A    between atoms: _155  and  _157
REMARK   64  A    between atoms: _157  and  _158
REMARK   65  A    between atoms: _157  and  _160
REMARK   66  A    between atoms: _160  and  _161
REMARK   67  A    between atoms: _167  and  _169
REMARK   68  A    between atoms: _169  and  _170
REMARK   69  A    between atoms: _169  and  _172
REMARK   70  A    between atoms: _172  and  _173
REMARK   71  A    between atoms: _178  and  _179
REMARK   72  A    between atoms: _181  and  _183
REMARK   73  A    between atoms: _183  and  _184
REMARK   74  A    between atoms: _183  and  _186
REMARK   75  A    between atoms: _186  and  _187
REMARK   76  A    between atoms: _190  and  _192
REMARK   77  A    between atoms: _192  and  _193
REMARK   78  A    between atoms: _192  and  _195
REMARK   79  A    between atoms: _198  and  _200
REMARK   80  A    between atoms: _200  and  _201
REMARK   81  A    between atoms: _200  and  _203
REMARK   82  A    between atoms: _203  and  _204
REMARK   83  A    between atoms: _207  and  _209
REMARK   84  A    between atoms: _209  and  _210
REMARK   85  A    between atoms: _209  and  _212
REMARK   86  A    between atoms: _212  and  _213
REMARK   87  A    between atoms: _213  and  _214
REMARK   88  A    between atoms: _214  and  _215
REMARK   89  A    between atoms: _224  and  _226
REMARK   90  A    between atoms: _226  and  _227
REMARK   91  A    between atoms: _230  and  _232
REMARK   92  A    between atoms: _232  and  _233
REMARK   93  A    between atoms: _232  and  _235
REMARK   94  A    between atoms: _235  and  _236
REMARK   95  A    between atoms: _239  and  _241
REMARK   96  A    between atoms: _241  and  _242
REMARK   97  A    between atoms: _241  and  _244
REMARK   98  A    between atoms: _244  and  _245
REMARK   99  A    between atoms: _248  and  _250
REMARK  100  A    between atoms: _250  and  _251
REMARK  101  A    between atoms: _250  and  _253
REMARK  102  A    between atoms: _253  and  _254
REMARK  103  A    between atoms: _257  and  _259
REMARK  104  A    between atoms: _259  and  _260
REMARK  105  A    between atoms: _259  and  _262
REMARK  106  A    between atoms: _262  and  _263
REMARK  107  A    between atoms: _263  and  _264
REMARK  108  A    between atoms: _267  and  _269
REMARK  109  A    between atoms: _269  and  _270
REMARK  110  A    between atoms: _269  and  _272
REMARK  111  A    between atoms: _272  and  _273
REMARK  112  A    between atoms: _276  and  _278
REMARK  113  A    between atoms: _278  and  _279
REMARK  114  A    between atoms: _278  and  _281
REMARK  115  A    between atoms: _281  and  _282
REMARK  116  A    between atoms: _282  and  _283
REMARK  117  A    between atoms: _283  and  _284
REMARK  118  A    between atoms: _284  and  _285
REMARK  119  A    between atoms: _289  and  _291
REMARK  120  A    between atoms: _291  and  _292
REMARK  121  A    between atoms: _291  and  _294
REMARK  122  A    between atoms: _294  and  _295
REMARK  123  A    between atoms: _298  and  _300
REMARK  124  A    between atoms: _300  and  _301
REMARK  125  A    between atoms: _300  and  _303
REMARK  126  A    between atoms: _303  and  _304
REMARK  127  A    between atoms: _307  and  _309
REMARK  128  A    between atoms: _309  and  _310
REMARK  129  A    between atoms: _309  and  _312
REMARK  130  A    between atoms: _312  and  _313
REMARK  131  A    between atoms: _313  and  _314
REMARK  132  A    between atoms: _316  and  _318
REMARK  133  A    between atoms: _318  and  _319
REMARK  134  A    between atoms: _318  and  _321
REMARK  135  A    between atoms: _321  and  _322
REMARK  136  A    between atoms: _322  and  _323
REMARK  137  A    between atoms: _325  and  _327
REMARK  138  A    between atoms: _327  and  _328
REMARK  139  A    between atoms: _327  and  _330
REMARK  140  A    between atoms: _330  and  _331
REMARK  141  A    between atoms: _336  and  _337
REMARK  142  A    between atoms: _339  and  _341
REMARK  143  A    between atoms: _341  and  _342
REMARK  144  A    between atoms: _341  and  _344
REMARK  145  A    between atoms: _344  and  _345
REMARK  146  A    between atoms: _350  and  _351
REMARK  147  A    between atoms: _353  and  _355
REMARK  148  A    between atoms: _355  and  _356
REMARK  149  A    between atoms: _355  and  _358
REMARK  150  A    between atoms: _361  and  _363
REMARK  151  A    between atoms: _363  and  _364
REMARK  152  A    between atoms: _367  and  _369
REMARK  153  A    between atoms: _369  and  _370
REMARK  154  A    between atoms: _372  and  _374
REMARK  155  A    between atoms: _374  and  _375
REMARK  156  A    between atoms: _374  and  _377
REMARK  157  A    between atoms: _377  and  _378
REMARK  158  A    between atoms: _381  and  _383
REMARK  159  A    between atoms: _383  and  _384
REMARK  160  A    between atoms: _383  and  _386
REMARK  161  A    between atoms: _389  and  _391
REMARK  162  A    between atoms: _391  and  _392
REMARK  163  A    between atoms: _394  and  _396
REMARK  164  A    between atoms: _396  and  _397
REMARK  165  A    between atoms: _399  and  _401
REMARK  166  A    between atoms: _401  and  _402
REMARK  167  A    between atoms: _401  and  _404
REMARK  168  A    between atoms: _404  and  _405
REMARK  169  A    between atoms: _408  and  _410
REMARK  170  A    between atoms: _410  and  _411
REMARK  171  A    between atoms: _410  and  _413
REMARK  172  A    between atoms: _413  and  _414
REMARK  173  A    between atoms: _417  and  _419
REMARK  174  A    between atoms: _419  and  _420
REMARK  175  A    between atoms: _419  and  _422
REMARK  176  A    between atoms: _422  and  _423
REMARK  177  A    between atoms: _429  and  _431
REMARK  178  A    between atoms: _431  and  _432
REMARK  179  A    between atoms: _431  and  _434
REMARK  180  A    between atoms: _434  and  _435
REMARK  181  A    between atoms: _435  and  _436
REMARK  182  A    between atoms: _438  and  _440
REMARK  183  A    between atoms: _440  and  _441
REMARK  184  A    between atoms: _440  and  _443
REMARK  185  A    between atoms: _443  and  _444
REMARK  186  A    between atoms: _450  and  _452
REMARK  187  A    between atoms: _452  and  _453
REMARK  188  A    between atoms: _452  and  _455
REMARK  189  A    between atoms: _455  and  _456
REMARK  190  A    between atoms: _459  and  _461
REMARK  191  A    between atoms: _461  and  _462
REMARK  192  A    between atoms: _461  and  _464
REMARK  193  A    between atoms: _464  and  _465
REMARK  194  A    between atoms: _465  and  _466
REMARK  195  A    between atoms: _471  and  _473
REMARK  196  A    between atoms: _473  and  _474
REMARK  197  A    between atoms: _473  and  _476
REMARK  198  A    between atoms: _476  and  _477
REMARK  199  A    between atoms: _477  and  _478
REMARK  200  A    between atoms: _478  and  _479
REMARK  201  A    between atoms: _479  and  _480
REMARK  202  A    between atoms: _484  and  _486
REMARK  203  A    between atoms: _486  and  _487
REMARK  204  A    between atoms: _486  and  _489
REMARK  205  A    between atoms: _489  and  _490
REMARK  206  A    between atoms: _493  and  _495
REMARK  207  A    between atoms: _495  and  _496
REMARK  208  A    between atoms: _495  and  _498
REMARK  209  A    between atoms: _498  and  _499
REMARK  210  A    between atoms: _504  and  _506
REMARK  211  A    between atoms: _506  and  _507
REMARK  212  A    between atoms: _506  and  _509
REMARK  213  A    between atoms: _509  and  _510
REMARK  214  A    between atoms: _513  and  _515
REMARK  215  A    between atoms: _515  and  _516
REMARK  216  A    between atoms: _515  and  _518
REMARK  217  A    between atoms: _518  and  _519
REMARK  218  A    between atoms: _519  and  _520
REMARK  219  A    between atoms: _520  and  _521
REMARK  220  A    between atoms: _530  and  _532
REMARK  221  A    between atoms: _532  and  _533
REMARK  222  A    between atoms: _532  and  _535
REMARK  223  A    between atoms: _535  and  _536
REMARK  224  A    between atoms: _539  and  _541
REMARK  225  A    between atoms: _541  and  _542
REMARK  226  A    between atoms: _541  and  _544
REMARK  227  A    between atoms: _544  and  _545
REMARK  228  A    between atoms: _545  and  _546
REMARK  229  A    between atoms: _549  and  _551
REMARK  230  A    between atoms: _551  and  _552
REMARK  231  A    between atoms: _551  and  _554
REMARK  232  A    between atoms: _554  and  _555
REMARK  233  A    between atoms: _561  and  _563
REMARK  234  A    between atoms: _563  and  _564
REMARK  235  A    between atoms: _563  and  _566
REMARK  236  A    between atoms: _566  and  _567
REMARK  237  A    between atoms: _571  and  _572
REMARK  238  A    between atoms: _577  and  _579
REMARK  239  A    between atoms: _579  and  _580
REMARK  240  A    between atoms: _579  and  _582
REMARK  241  A    between atoms: _582  and  _583
REMARK  242  A    between atoms: _583  and  _584
REMARK  243  A    between atoms: _589  and  _591
REMARK  244  A    between atoms: _591  and  _592
REMARK  245  A    between atoms: _591  and  _594
REMARK  246  A    between atoms: _597  and  _599
REMARK  247  A    between atoms: _599  and  _600
REMARK  248  A    between atoms: _599  and  _602
REMARK  249  A    between atoms: _602  and  _603
REMARK  250  A    between atoms: _603  and  _604
REMARK  251  A    between atoms: _606  and  _608
REMARK  252  A    between atoms: _608  and  _609
REMARK  253  A    between atoms: _612  and  _614
REMARK  254  A    between atoms: _614  and  _615
REMARK  255  A    between atoms: _614  and  _617
REMARK  256  A    between atoms: _617  and  _618
REMARK  257  A    between atoms: _621  and  _623
REMARK  258  A    between atoms: _623  and  _624
REMARK  259  A    between atoms: _627  and  _629
REMARK  260  A    between atoms: _629  and  _630
REMARK  261  A    between atoms: _629  and  _632
REMARK  262  A    between atoms: _632  and  _633
REMARK  263  A    between atoms: _636  and  _638
REMARK  264  A    between atoms: _638  and  _639
REMARK  265  A    between atoms: _638  and  _641
REMARK  266  A    between atoms: _641  and  _642
REMARK  267  A    between atoms: _645  and  _647
REMARK  268  A    between atoms: _647  and  _648
REMARK  269  A    between atoms: _647  and  _650
REMARK  270  A    between atoms: _650  and  _651
REMARK  271  A    between atoms: _654  and  _656
REMARK  272  A    between atoms: _656  and  _657
REMARK  273  A    between atoms: _656  and  _659
REMARK  274  A    between atoms: _659  and  _660
REMARK  275  A    between atoms: _660  and  _661
REMARK  276  A    between atoms: _666  and  _668
REMARK  277  A    between atoms: _668  and  _669
REMARK  278  A    between atoms: _672  and  _674
REMARK  279  A    between atoms: _674  and  _675
REMARK  280  A    between atoms: _674  and  _677
REMARK  281  A    between atoms: _680  and  _682
REMARK  282  A    between atoms: _682  and  _683
REMARK  283  A    between atoms: _682  and  _685
REMARK  284  A    between atoms: _685  and  _686
REMARK  285  A    between atoms: _689  and  _691
REMARK  286  A    between atoms: _691  and  _692
REMARK  287  A    between atoms: _691  and  _694
REMARK  288  A    between atoms: _694  and  _695
REMARK  289  A    between atoms: _695  and  _696
REMARK                            x       y       z     vdW  Elec       q    Type
REMARK                         _______ _______ _______ _____ _____    ______ ____
ROOT
ATOM      1  O   HOH     1      19.331  54.840  56.643  0.00  0.00    +0.000 OA
ENDROOT
TORSDOF 0
REMARK  Name = ../refined-set-2016/3vjc/3vjc_pocket.pdb
REMARK  289 active torsions:
REMARK  status: ('A' for Active; 'I' for Inactive)
REMARK    1  A    between atoms: _1  and  _3
REMARK    2  A    between atoms: _3  and  _4
REMARK    3  A    between atoms: _3  and  _6
REMARK    4  A    between atoms: _6  and  _7
REMARK    5  A    between atoms: _10  and  _12
REMARK    6  A    between atoms: _12  and  _13
REMARK    7  A    between atoms: _12  and  _15
REMARK    8  A    between atoms: _15  and  _16
REMARK    9  A    between atoms: _21  and  _23
REMARK   10  A    between atoms: _23  and  _24
REMARK   11  A    between atoms: _23  and  _26
REMARK   12  A    between atoms: _26  and  _27
REMARK   13  A    between atoms: _27  and  _28
REMARK   14  A    between atoms: _33  and  _35
REMARK   15  A    between atoms: _35  and  _36
REMARK   16  A    between atoms: _35  and  _38
REMARK   17  A    between atoms: _38  and  _39
REMARK   18  A    between atoms: _42  and  _44
REMARK   19  A    between atoms: _44  and  _45
REMARK   20  A    between atoms: _44  and  _47
REMARK   21  A    between atoms: _47  and  _48
REMARK   22  A    between atoms: _50  and  _52
REMARK   23  A    between atoms: _52  and  _53
REMARK   24  A    between atoms: _52  and  _55
REMARK   25  A    between atoms: _55  and  _56
REMARK   26  A    between atoms: _56  and  _57
REMARK   27  A    between atoms: _57  and  _58
REMARK   28  A    between atoms: _67  and  _69
REMARK   29  A    between atoms: _69  and  _70
REMARK   30  A    between atoms: _69  and  _72
REMARK   31  A    between atoms: _72  and  _73
REMARK   32  A    between atoms: _75  and  _77
REMARK   33  A    between atoms: _77  and  _78
REMARK   34  A    between atoms: _77  and  _80
REMARK   35  A    between atoms: _80  and  _81
REMARK   36  A    between atoms: _87  and  _89
REMARK   37  A    between atoms: _89  and  _90
REMARK   38  A    between atoms: _93  and  _95
REMARK   39  A    between atoms: _95  and  _96
REMARK   40  A    between atoms: _99  and  _101
REMARK   41  A    between atoms: _101  and  _102
REMARK   42  A    between atoms: _101  and  _104
REMARK   43  A    between atoms: _107  and  _109
REMARK   44  A    between atoms: _109  and  _110
REMARK   45  A    between atoms: _109  and  _112
REMARK   46  A    between atoms: _112  and  _113
REMARK   47  A    between atoms: _116  and  _118
REMARK   48  A    between atoms: _118  and  _119
REMARK   49  A    between atoms: _118  and  _121
REMARK   50  A    between atoms: _121  and  _122
REMARK   51  A    between atoms: _125  and  _127
REMARK   52  A    between atoms: _127  and  _128
REMARK   53  A    between atoms: _131  and  _133
REMARK   54  A    between atoms: _133  and  _134
REMARK   55  A    between atoms: _133  and  _136
REMARK   56  A    between atoms: _139  and  _141
REMARK   57  A    between atoms: _141  and  _142
REMARK   58  A    between atoms: _141  and  _144
REMARK   59  A    between atoms: _146  and  _148
REMARK   60  A    between atoms: _148  and  _149
REMARK   61  A    between atoms: _148  and  _151
REMARK   62  A    between atoms: _151  and  _152
REMARK   63  A    between atoms: _155  and  _157
REMARK   64  A    between atoms: _157  and  _158
REMARK   65  A    between atoms: _157  and  _160
REMARK   66  A    between atoms: _160  and  _161
REMARK   67  A    between atoms: _167  and  _169
REMARK   68  A    between atoms: _169  and  _170
REMARK   69  A    between atoms: _169  and  _172
REMARK   70  A    between atoms: _172  and  _173
REMARK   71  A    between atoms: _178  and  _179
REMARK   72  A    between atoms: _181  and  _183
REMARK   73  A    between atoms: _183  and  _184
REMARK   74  A    between atoms: _183  and  _186
REMARK   75  A    between atoms: _186  and  _187
REMARK   76  A    between atoms: _190  and  _192
REMARK   77  A    between atoms: _192  and  _193
REMARK   78  A    between atoms: _192  and  _195
REMARK   79  A    between atoms: _198  and  _200
REMARK   80  A    between atoms: _200  and  _201
REMARK   81  A    between atoms: _200  and  _203
REMARK   82  A    between atoms: _203  and  _204
REMARK   83  A    between atoms: _207  and  _209
REMARK   84  A    between atoms: _209  and  _210
REMARK   85  A    between atoms: _209  and  _212
REMARK   86  A    between atoms: _212  and  _213
REMARK   87  A    between atoms: _213  and  _214
REMARK   88  A    between atoms: _214  and  _215
REMARK   89  A    between atoms: _224  and  _226
REMARK   90  A    between atoms: _226  and  _227
REMARK   91  A    between atoms: _230  and  _232
REMARK   92  A    between atoms: _232  and  _233
REMARK   93  A    between atoms: _232  and  _235
REMARK   94  A    between atoms: _235  and  _236
REMARK   95  A    between atoms: _239  and  _241
REMARK   96  A    between atoms: _241  and  _242
REMARK   97  A    between atoms: _241  and  _244
REMARK   98  A    between atoms: _244  and  _245
REMARK   99  A    between atoms: _248  and  _250
REMARK  100  A    between atoms: _250  and  _251
REMARK  101  A    between atoms: _250  and  _253
REMARK  102  A    between atoms: _253  and  _254
REMARK  103  A    between atoms: _257  and  _259
REMARK  104  A    between atoms: _259  and  _260
REMARK  105  A    between atoms: _259  and  _262
REMARK  106  A    between atoms: _262  and  _263
REMARK  107  A    between atoms: _263  and  _264
REMARK  108  A    between atoms: _267  and  _269
REMARK  109  A    between atoms: _269  and  _270
REMARK  110  A    between atoms: _269  and  _272
REMARK  111  A    between atoms: _272  and  _273
REMARK  112  A    between atoms: _276  and  _278
REMARK  113  A    between atoms: _278  and  _279
REMARK  114  A    between atoms: _278  and  _281
REMARK  115  A    between atoms: _281  and  _282
REMARK  116  A    between atoms: _282  and  _283
REMARK  117  A    between atoms: _283  and  _284
REMARK  118  A    between atoms: _284  and  _285
REMARK  119  A    between atoms: _289  and  _291
REMARK  120  A    between atoms: _291  and  _292
REMARK  121  A    between atoms: _291  and  _294
REMARK  122  A    between atoms: _294  and  _295
REMARK  123  A    between atoms: _298  and  _300
REMARK  124  A    between atoms: _300  and  _301
REMARK  125  A    between atoms: _300  and  _303
REMARK  126  A    between atoms: _303  and  _304
REMARK  127  A    between atoms: _307  and  _309
REMARK  128  A    between atoms: _309  and  _310
REMARK  129  A    between atoms: _309  and  _312
REMARK  130  A    between atoms: _312  and  _313
REMARK  131  A    between atoms: _313  and  _314
REMARK  132  A    between atoms: _316  and  _318
REMARK  133  A    between atoms: _318  and  _319
REMARK  134  A    between atoms: _318  and  _321
REMARK  135  A    between atoms: _321  and  _322
REMARK  136  A    between atoms: _322  and  _323
REMARK  137  A    between atoms: _325  and  _327
REMARK  138  A    between atoms: _327  and  _328
REMARK  139  A    between atoms: _327  and  _330
REMARK  140  A    between atoms: _330  and  _331
REMARK  141  A    between atoms: _336  and  _337
REMARK  142  A    between atoms: _339  and  _341
REMARK  143  A    between atoms: _341  and  _342
REMARK  144  A    between atoms: _341  and  _344
REMARK  145  A    between atoms: _344  and  _345
REMARK  146  A    between atoms: _350  and  _351
REMARK  147  A    between atoms: _353  and  _355
REMARK  148  A    between atoms: _355  and  _356
REMARK  149  A    between atoms: _355  and  _358
REMARK  150  A    between atoms: _361  and  _363
REMARK  151  A    between atoms: _363  and  _364
REMARK  152  A    between atoms: _367  and  _369
REMARK  153  A    between atoms: _369  and  _370
REMARK  154  A    between atoms: _372  and  _374
REMARK  155  A    between atoms: _374  and  _375
REMARK  156  A    between atoms: _374  and  _377
REMARK  157  A    between atoms: _377  and  _378
REMARK  158  A    between atoms: _381  and  _383
REMARK  159  A    between atoms: _383  and  _384
REMARK  160  A    between atoms: _383  and  _386
REMARK  161  A    between atoms: _389  and  _391
REMARK  162  A    between atoms: _391  and  _392
REMARK  163  A    between atoms: _394  and  _396
REMARK  164  A    between atoms: _396  and  _397
REMARK  165  A    between atoms: _399  and  _401
REMARK  166  A    between atoms: _401  and  _402
REMARK  167  A    between atoms: _401  and  _404
REMARK  168  A    between atoms: _404  and  _405
REMARK  169  A    between atoms: _408  and  _410
REMARK  170  A    between atoms: _410  and  _411
REMARK  171  A    between atoms: _410  and  _413
REMARK  172  A    between atoms: _413  and  _414
REMARK  173  A    between atoms: _417  and  _419
REMARK  174  A    between atoms: _419  and  _420
REMARK  175  A    between atoms: _419  and  _422
REMARK  176  A    between atoms: _422  and  _423
REMARK  177  A    between atoms: _429  and  _431
REMARK  178  A    between atoms: _431  and  _432
REMARK  179  A    between atoms: _431  and  _434
REMARK  180  A    between atoms: _434  and  _435
REMARK  181  A    between atoms: _435  and  _436
REMARK  182  A    between atoms: _438  and  _440
REMARK  183  A    between atoms: _440  and  _441
REMARK  184  A    between atoms: _440  and  _443
REMARK  185  A    between atoms: _443  and  _444
REMARK  186  A    between atoms: _450  and  _452
REMARK  187  A    between atoms: _452  and  _453
REMARK  188  A    between atoms: _452  and  _455
REMARK  189  A    between atoms: _455  and  _456
REMARK  190  A    between atoms: _459  and  _461
REMARK  191  A    between atoms: _461  and  _462
REMARK  192  A    between atoms: _461  and  _464
REMARK  193  A    between atoms: _464  and  _465
REMARK  194  A    between atoms: _465  and  _466
REMARK  195  A    between atoms: _471  and  _473
REMARK  196  A    between atoms: _473  and  _474
REMARK  197  A    between atoms: _473  and  _476
REMARK  198  A    between atoms: _476  and  _477
REMARK  199  A    between atoms: _477  and  _478
REMARK  200  A    between atoms: _478  and  _479
REMARK  201  A    between atoms: _479  and  _480
REMARK  202  A    between atoms: _484  and  _486
REMARK  203  A    between atoms: _486  and  _487
REMARK  204  A    between atoms: _486  and  _489
REMARK  205  A    between atoms: _489  and  _490
REMARK  206  A    between atoms: _493  and  _495
REMARK  207  A    between atoms: _495  and  _496
REMARK  208  A    between atoms: _495  and  _498
REMARK  209  A    between atoms: _498  and  _499
REMARK  210  A    between atoms: _504  and  _506
REMARK  211  A    between atoms: _506  and  _507
REMARK  212  A    between atoms: _506  and  _509
REMARK  213  A    between atoms: _509  and  _510
REMARK  214  A    between atoms: _513  and  _515
REMARK  215  A    between atoms: _515  and  _516
REMARK  216  A    between atoms: _515  and  _518
REMARK  217  A    between atoms: _518  and  _519
REMARK  218  A    between atoms: _519  and  _520
REMARK  219  A    between atoms: _520  and  _521
REMARK  220  A    between atoms: _530  and  _532
REMARK  221  A    between atoms: _532  and  _533
REMARK  222  A    between atoms: _532  and  _535
REMARK  223  A    between atoms: _535  and  _536
REMARK  224  A    between atoms: _539  and  _541
REMARK  225  A    between atoms: _541  and  _542
REMARK  226  A    between atoms: _541  and  _544
REMARK  227  A    between atoms: _544  and  _545
REMARK  228  A    between atoms: _545  and  _546
REMARK  229  A    between atoms: _549  and  _551
REMARK  230  A    between atoms: _551  and  _552
REMARK  231  A    between atoms: _551  and  _554
REMARK  232  A    between atoms: _554  and  _555
REMARK  233  A    between atoms: _561  and  _563
REMARK  234  A    between atoms: _563  and  _564
REMARK  235  A    between atoms: _563  and  _566
REMARK  236  A    between atoms: _566  and  _567
REMARK  237  A    between atoms: _571  and  _572
REMARK  238  A    between atoms: _577  and  _579
REMARK  239  A    between atoms: _579  and  _580
REMARK  240  A    between atoms: _579  and  _582
REMARK  241  A    between atoms: _582  and  _583
REMARK  242  A    between atoms: _583  and  _584
REMARK  243  A    between atoms: _589  and  _591
REMARK  244  A    between atoms: _591  and  _592
REMARK  245  A    between atoms: _591  and  _594
REMARK  246  A    between atoms: _597  and  _599
REMARK  247  A    between atoms: _599  and  _600
REMARK  248  A    between atoms: _599  and  _602
REMARK  249  A    between atoms: _602  and  _603
REMARK  250  A    between atoms: _603  and  _604
REMARK  251  A    between atoms: _606  and  _608
REMARK  252  A    between atoms: _608  and  _609
REMARK  253  A    between atoms: _612  and  _614
REMARK  254  A    between atoms: _614  and  _615
REMARK  255  A    between atoms: _614  and  _617
REMARK  256  A    between atoms: _617  and  _618
REMARK  257  A    between atoms: _621  and  _623
REMARK  258  A    between atoms: _623  and  _624
REMARK  259  A    between atoms: _627  and  _629
REMARK  260  A    between atoms: _629  and  _630
REMARK  261  A    between atoms: _629  and  _632
REMARK  262  A    between atoms: _632  and  _633
REMARK  263  A    between atoms: _636  and  _638
REMARK  264  A    between atoms: _638  and  _639
REMARK  265  A    between atoms: _638  and  _641
REMARK  266  A    between atoms: _641  and  _642
REMARK  267  A    between atoms: _645  and  _647
REMARK  268  A    between atoms: _647  and  _648
REMARK  269  A    between atoms: _647  and  _650
REMARK  270  A    between atoms: _650  and  _651
REMARK  271  A    between atoms: _654  and  _656
REMARK  272  A    between atoms: _656  and  _657
REMARK  273  A    between atoms: _656  and  _659
REMARK  274  A    between atoms: _659  and  _660
REMARK  275  A    between atoms: _660  and  _661
REMARK  276  A    between atoms: _666  and  _668
REMARK  277  A    between atoms: _668  and  _669
REMARK  278  A    between atoms: _672  and  _674
REMARK  279  A    between atoms: _674  and  _675
REMARK  280  A    between atoms: _674  and  _677
REMARK  281  A    between atoms: _680  and  _682
REMARK  282  A    between atoms: _682  and  _683
REMARK  283  A    between atoms: _682  and  _685
REMARK  284  A    between atoms: _685  and  _686
REMARK  285  A    between atoms: _689  and  _691
REMARK  286  A    between atoms: _691  and  _692
REMARK  287  A    between atoms: _691  and  _694
REMARK  288  A    between atoms: _694  and  _695
REMARK  289  A    between atoms: _695  and  _696
REMARK                            x       y       z     vdW  Elec       q    Type
REMARK                         _______ _______ _______ _____ _____    ______ ____
ROOT
ATOM      1  O   HOH     1      27.903  56.690  57.415  0.00  0.00    +0.000 OA
ENDROOT
TORSDOF 0
