REMARK  Name = ../refined-set-2016/3o9e/3o9e_pocket.pdb
REMARK  218 active torsions:
REMARK  status: ('A' for Active; 'I' for Inactive)
REMARK    1  A    between atoms: _1  and  _3
REMARK    2  A    between atoms: _3  and  _4
REMARK    3  A    between atoms: _3  and  _6
REMARK    4  A    between atoms: _6  and  _7
REMARK    5  A    between atoms: _7  and  _8
REMARK    6  A    between atoms: _8  and  _9
REMARK    7  A    between atoms: _18  and  _20
REMARK    8  A    between atoms: _20  and  _21
REMARK    9  A    between atoms: _20  and  _23
REMARK   10  A    between atoms: _23  and  _24
REMARK   11  A    between atoms: _27  and  _29
REMARK   12  A    between atoms: _29  and  _30
REMARK   13  A    between atoms: _29  and  _32
REMARK   14  A    between atoms: _32  and  _33
REMARK   15  A    between atoms: _36  and  _38
REMARK   16  A    between atoms: _38  and  _39
REMARK   17  A    between atoms: _38  and  _41
REMARK   18  A    between atoms: _41  and  _42
REMARK   19  A    between atoms: _45  and  _47
REMARK   20  A    between atoms: _47  and  _48
REMARK   21  A    between atoms: _47  and  _50
REMARK   22  A    between atoms: _50  and  _51
REMARK   23  A    between atoms: _54  and  _56
REMARK   24  A    between atoms: _56  and  _57
REMARK   25  A    between atoms: _59  and  _61
REMARK   26  A    between atoms: _61  and  _62
REMARK   27  A    between atoms: _65  and  _67
REMARK   28  A    between atoms: _67  and  _68
REMARK   29  A    between atoms: _67  and  _70
REMARK   30  A    between atoms: _70  and  _71
REMARK   31  A    between atoms: _74  and  _76
REMARK   32  A    between atoms: _76  and  _77
REMARK   33  A    between atoms: _76  and  _79
REMARK   34  A    between atoms: _79  and  _80
REMARK   35  A    between atoms: _83  and  _85
REMARK   36  A    between atoms: _85  and  _86
REMARK   37  A    between atoms: _85  and  _88
REMARK   38  A    between atoms: _88  and  _89
REMARK   39  A    between atoms: _92  and  _94
REMARK   40  A    between atoms: _94  and  _95
REMARK   41  A    between atoms: _94  and  _97
REMARK   42  A    between atoms: _100  and  _102
REMARK   43  A    between atoms: _102  and  _103
REMARK   44  A    between atoms: _102  and  _105
REMARK   45  A    between atoms: _105  and  _106
REMARK   46  A    between atoms: _109  and  _111
REMARK   47  A    between atoms: _111  and  _112
REMARK   48  A    between atoms: _114  and  _116
REMARK   49  A    between atoms: _116  and  _117
REMARK   50  A    between atoms: _119  and  _121
REMARK   51  A    between atoms: _121  and  _122
REMARK   52  A    between atoms: _121  and  _124
REMARK   53  A    between atoms: _124  and  _125
REMARK   54  A    between atoms: _128  and  _130
REMARK   55  A    between atoms: _130  and  _131
REMARK   56  A    between atoms: _133  and  _135
REMARK   57  A    between atoms: _135  and  _136
REMARK   58  A    between atoms: _138  and  _140
REMARK   59  A    between atoms: _140  and  _141
REMARK   60  A    between atoms: _140  and  _143
REMARK   61  A    between atoms: _143  and  _144
REMARK   62  A    between atoms: _147  and  _149
REMARK   63  A    between atoms: _149  and  _150
REMARK   64  A    between atoms: _149  and  _152
REMARK   65  A    between atoms: _152  and  _153
REMARK   66  A    between atoms: _157  and  _158
REMARK   67  A    between atoms: _163  and  _165
REMARK   68  A    between atoms: _165  and  _166
REMARK   69  A    between atoms: _165  and  _168
REMARK   70  A    between atoms: _168  and  _169
REMARK   71  A    between atoms: _173  and  _174
REMARK   72  A    between atoms: _179  and  _181
REMARK   73  A    between atoms: _181  and  _182
REMARK   74  A    between atoms: _181  and  _184
REMARK   75  A    between atoms: _187  and  _189
REMARK   76  A    between atoms: _189  and  _190
REMARK   77  A    between atoms: _189  and  _192
REMARK   78  A    between atoms: _192  and  _193
REMARK   79  A    between atoms: _198  and  _200
REMARK   80  A    between atoms: _200  and  _201
REMARK   81  A    between atoms: _200  and  _203
REMARK   82  A    between atoms: _203  and  _204
REMARK   83  A    between atoms: _207  and  _209
REMARK   84  A    between atoms: _209  and  _210
REMARK   85  A    between atoms: _209  and  _212
REMARK   86  A    between atoms: _212  and  _213
REMARK   87  A    between atoms: _216  and  _218
REMARK   88  A    between atoms: _218  and  _219
REMARK   89  A    between atoms: _221  and  _223
REMARK   90  A    between atoms: _223  and  _224
REMARK   91  A    between atoms: _223  and  _226
REMARK   92  A    between atoms: _226  and  _227
REMARK   93  A    between atoms: _227  and  _228
REMARK   94  A    between atoms: _228  and  _229
REMARK   95  A    between atoms: _238  and  _240
REMARK   96  A    between atoms: _240  and  _241
REMARK   97  A    between atoms: _240  and  _243
REMARK   98  A    between atoms: _243  and  _244
REMARK   99  A    between atoms: _249  and  _251
REMARK  100  A    between atoms: _251  and  _252
REMARK  101  A    between atoms: _251  and  _254
REMARK  102  A    between atoms: _254  and  _255
REMARK  103  A    between atoms: _255  and  _256
REMARK  104  A    between atoms: _256  and  _257
REMARK  105  A    between atoms: _266  and  _268
REMARK  106  A    between atoms: _268  and  _269
REMARK  107  A    between atoms: _268  and  _271
REMARK  108  A    between atoms: _271  and  _272
REMARK  109  A    between atoms: _275  and  _277
REMARK  110  A    between atoms: _277  and  _278
REMARK  111  A    between atoms: _277  and  _280
REMARK  112  A    between atoms: _280  and  _281
REMARK  113  A    between atoms: _284  and  _286
REMARK  114  A    between atoms: _286  and  _287
REMARK  115  A    between atoms: _286  and  _289
REMARK  116  A    between atoms: _289  and  _290
REMARK  117  A    between atoms: _293  and  _295
REMARK  118  A    between atoms: _295  and  _296
REMARK  119  A    between atoms: _295  and  _298
REMARK  120  A    between atoms: _298  and  _299
REMARK  121  A    between atoms: _302  and  _304
REMARK  122  A    between atoms: _304  and  _305
REMARK  123  A    between atoms: _307  and  _309
REMARK  124  A    between atoms: _309  and  _310
REMARK  125  A    between atoms: _313  and  _315
REMARK  126  A    between atoms: _315  and  _316
REMARK  127  A    between atoms: _315  and  _318
REMARK  128  A    between atoms: _318  and  _319
REMARK  129  A    between atoms: _322  and  _324
REMARK  130  A    between atoms: _324  and  _325
REMARK  131  A    between atoms: _324  and  _327
REMARK  132  A    between atoms: _327  and  _328
REMARK  133  A    between atoms: _331  and  _333
REMARK  134  A    between atoms: _333  and  _334
REMARK  135  A    between atoms: _333  and  _336
REMARK  136  A    between atoms: _336  and  _337
REMARK  137  A    between atoms: _340  and  _342
REMARK  138  A    between atoms: _342  and  _343
REMARK  139  A    between atoms: _342  and  _345
REMARK  140  A    between atoms: _348  and  _350
REMARK  141  A    between atoms: _350  and  _351
REMARK  142  A    between atoms: _350  and  _353
REMARK  143  A    between atoms: _353  and  _354
REMARK  144  A    between atoms: _357  and  _359
REMARK  145  A    between atoms: _359  and  _360
REMARK  146  A    between atoms: _359  and  _362
REMARK  147  A    between atoms: _362  and  _363
REMARK  148  A    between atoms: _363  and  _364
REMARK  149  A    between atoms: _364  and  _365
REMARK  150  A    between atoms: _365  and  _366
REMARK  151  A    between atoms: _370  and  _372
REMARK  152  A    between atoms: _372  and  _373
REMARK  153  A    between atoms: _372  and  _375
REMARK  154  A    between atoms: _375  and  _376
REMARK  155  A    between atoms: _376  and  _377
REMARK  156  A    between atoms: _379  and  _381
REMARK  157  A    between atoms: _381  and  _382
REMARK  158  A    between atoms: _381  and  _384
REMARK  159  A    between atoms: _384  and  _385
REMARK  160  A    between atoms: _388  and  _390
REMARK  161  A    between atoms: _390  and  _391
REMARK  162  A    between atoms: _393  and  _395
REMARK  163  A    between atoms: _395  and  _396
REMARK  164  A    between atoms: _398  and  _400
REMARK  165  A    between atoms: _400  and  _401
REMARK  166  A    between atoms: _400  and  _403
REMARK  167  A    between atoms: _403  and  _404
REMARK  168  A    between atoms: _407  and  _409
REMARK  169  A    between atoms: _409  and  _410
REMARK  170  A    between atoms: _412  and  _414
REMARK  171  A    between atoms: _414  and  _415
REMARK  172  A    between atoms: _417  and  _419
REMARK  173  A    between atoms: _419  and  _420
REMARK  174  A    between atoms: _419  and  _422
REMARK  175  A    between atoms: _422  and  _423
REMARK  176  A    between atoms: _429  and  _431
REMARK  177  A    between atoms: _431  and  _432
REMARK  178  A    between atoms: _431  and  _434
REMARK  179  A    between atoms: _434  and  _435
REMARK  180  A    between atoms: _438  and  _440
REMARK  181  A    between atoms: _440  and  _441
REMARK  182  A    between atoms: _440  and  _443
REMARK  183  A    between atoms: _446  and  _448
REMARK  184  A    between atoms: _448  and  _449
REMARK  185  A    between atoms: _448  and  _451
REMARK  186  A    between atoms: _451  and  _452
REMARK  187  A    between atoms: _455  and  _457
REMARK  188  A    between atoms: _457  and  _458
REMARK  189  A    between atoms: _457  and  _460
REMARK  190  A    between atoms: _460  and  _461
REMARK  191  A    between atoms: _465  and  _466
REMARK  192  A    between atoms: _471  and  _473
REMARK  193  A    between atoms: _473  and  _474
REMARK  194  A    between atoms: _473  and  _476
REMARK  195  A    between atoms: _479  and  _481
REMARK  196  A    between atoms: _481  and  _482
REMARK  197  A    between atoms: _481  and  _484
REMARK  198  A    between atoms: _484  and  _485
REMARK  199  A    between atoms: _490  and  _492
REMARK  200  A    between atoms: _492  and  _493
REMARK  201  A    between atoms: _492  and  _495
REMARK  202  A    between atoms: _495  and  _496
REMARK  203  A    between atoms: _499  and  _501
REMARK  204  A    between atoms: _501  and  _502
REMARK  205  A    between atoms: _501  and  _504
REMARK  206  A    between atoms: _504  and  _505
REMARK  207  A    between atoms: _508  and  _510
REMARK  208  A    between atoms: _510  and  _511
REMARK  209  A    between atoms: _513  and  _515
REMARK  210  A    between atoms: _515  and  _516
REMARK  211  A    between atoms: _515  and  _518
REMARK  212  A    between atoms: _518  and  _519
REMARK  213  A    between atoms: _519  and  _520
REMARK  214  A    between atoms: _520  and  _521
REMARK  215  A    between atoms: _530  and  _532
REMARK  216  A    between atoms: _532  and  _533
REMARK  217  A    between atoms: _532  and  _535
REMARK  218  A    between atoms: _535  and  _536
REMARK                            x       y       z     vdW  Elec       q    Type
REMARK                         _______ _______ _______ _____ _____    ______ ____
ROOT
ATOM      1  NE  ARG A   1      20.894  37.044  23.742  0.00  0.00    -0.265 N 
ATOM      2  HE  ARG A   1      19.926  36.664  23.742  0.00  0.00    +0.259 HD
ATOM      3  CZ  ARG A   1      21.106  38.198  23.111  0.00  0.00    +0.342 C 
ATOM      4  NH2 ARG A   1      22.314  38.755  23.092  0.00  0.00    -0.292 N 
ATOM      5 HH21 ARG A   1      23.109  38.289  23.574  0.00  0.00    +0.255 HD
ATOM      6 HH22 ARG A   1      22.463  39.656  22.595  0.00  0.00    +0.255 HD
ATOM      7  NH1 ARG A   1      20.098  38.803  22.503  0.00  0.00    -0.292 N 
ATOM      8 HH11 ARG A   1      19.149  38.377  22.520  0.00  0.00    +0.255 HD
ATOM      9 HH12 ARG A   1      20.255  39.704  22.008  0.00  0.00    +0.255 HD
ENDROOT
BRANCH   1  10
ATOM     10  CD  ARG A   1      21.923  36.277  24.433  0.00  0.00    +0.174 C 
BRANCH  10  11
ATOM     11  CG  ARG A   1      21.302  35.119  25.152  0.00  0.00    +0.045 C 
BRANCH  11  12
ATOM     12  CB  ARG A   1      22.327  34.381  25.961  0.00  0.00    +0.029 C 
BRANCH  12  13
ATOM     13  CA  ARG A   1      21.698  33.394  26.939  0.00  0.00    +0.133 C 
BRANCH  13  14
ATOM     14  N   ARG A   1      20.995  34.088  28.030  0.00  0.00    -0.239 NA
ATOM     15  H   ARG A   1      20.976  35.127  28.056  0.00  0.00    +0.142 HD
ENDBRANCH  13  14
BRANCH  13  16
ATOM     16  C   ARG A   1      22.802  32.519  27.519  0.00  0.00    +0.224 C 
ATOM     17  O   ARG A   1      23.568  32.974  28.368  0.00  0.00    -0.287 OA
ENDBRANCH  13  16
ENDBRANCH  12  13
ENDBRANCH  11  12
ENDBRANCH  10  11
ENDBRANCH   1  10
TORSDOF 6
REMARK  Name = ../refined-set-2016/3o9e/3o9e_pocket.pdb
REMARK  218 active torsions:
REMARK  status: ('A' for Active; 'I' for Inactive)
REMARK    1  A    between atoms: _1  and  _3
REMARK    2  A    between atoms: _3  and  _4
REMARK    3  A    between atoms: _3  and  _6
REMARK    4  A    between atoms: _6  and  _7
REMARK    5  A    between atoms: _7  and  _8
REMARK    6  A    between atoms: _8  and  _9
REMARK    7  A    between atoms: _18  and  _20
REMARK    8  A    between atoms: _20  and  _21
REMARK    9  A    between atoms: _20  and  _23
REMARK   10  A    between atoms: _23  and  _24
REMARK   11  A    between atoms: _27  and  _29
REMARK   12  A    between atoms: _29  and  _30
REMARK   13  A    between atoms: _29  and  _32
REMARK   14  A    between atoms: _32  and  _33
REMARK   15  A    between atoms: _36  and  _38
REMARK   16  A    between atoms: _38  and  _39
REMARK   17  A    between atoms: _38  and  _41
REMARK   18  A    between atoms: _41  and  _42
REMARK   19  A    between atoms: _45  and  _47
REMARK   20  A    between atoms: _47  and  _48
REMARK   21  A    between atoms: _47  and  _50
REMARK   22  A    between atoms: _50  and  _51
REMARK   23  A    between atoms: _54  and  _56
REMARK   24  A    between atoms: _56  and  _57
REMARK   25  A    between atoms: _59  and  _61
REMARK   26  A    between atoms: _61  and  _62
REMARK   27  A    between atoms: _65  and  _67
REMARK   28  A    between atoms: _67  and  _68
REMARK   29  A    between atoms: _67  and  _70
REMARK   30  A    between atoms: _70  and  _71
REMARK   31  A    between atoms: _74  and  _76
REMARK   32  A    between atoms: _76  and  _77
REMARK   33  A    between atoms: _76  and  _79
REMARK   34  A    between atoms: _79  and  _80
REMARK   35  A    between atoms: _83  and  _85
REMARK   36  A    between atoms: _85  and  _86
REMARK   37  A    between atoms: _85  and  _88
REMARK   38  A    between atoms: _88  and  _89
REMARK   39  A    between atoms: _92  and  _94
REMARK   40  A    between atoms: _94  and  _95
REMARK   41  A    between atoms: _94  and  _97
REMARK   42  A    between atoms: _100  and  _102
REMARK   43  A    between atoms: _102  and  _103
REMARK   44  A    between atoms: _102  and  _105
REMARK   45  A    between atoms: _105  and  _106
REMARK   46  A    between atoms: _109  and  _111
REMARK   47  A    between atoms: _111  and  _112
REMARK   48  A    between atoms: _114  and  _116
REMARK   49  A    between atoms: _116  and  _117
REMARK   50  A    between atoms: _119  and  _121
REMARK   51  A    between atoms: _121  and  _122
REMARK   52  A    between atoms: _121  and  _124
REMARK   53  A    between atoms: _124  and  _125
REMARK   54  A    between atoms: _128  and  _130
REMARK   55  A    between atoms: _130  and  _131
REMARK   56  A    between atoms: _133  and  _135
REMARK   57  A    between atoms: _135  and  _136
REMARK   58  A    between atoms: _138  and  _140
REMARK   59  A    between atoms: _140  and  _141
REMARK   60  A    between atoms: _140  and  _143
REMARK   61  A    between atoms: _143  and  _144
REMARK   62  A    between atoms: _147  and  _149
REMARK   63  A    between atoms: _149  and  _150
REMARK   64  A    between atoms: _149  and  _152
REMARK   65  A    between atoms: _152  and  _153
REMARK   66  A    between atoms: _157  and  _158
REMARK   67  A    between atoms: _163  and  _165
REMARK   68  A    between atoms: _165  and  _166
REMARK   69  A    between atoms: _165  and  _168
REMARK   70  A    between atoms: _168  and  _169
REMARK   71  A    between atoms: _173  and  _174
REMARK   72  A    between atoms: _179  and  _181
REMARK   73  A    between atoms: _181  and  _182
REMARK   74  A    between atoms: _181  and  _184
REMARK   75  A    between atoms: _187  and  _189
REMARK   76  A    between atoms: _189  and  _190
REMARK   77  A    between atoms: _189  and  _192
REMARK   78  A    between atoms: _192  and  _193
REMARK   79  A    between atoms: _198  and  _200
REMARK   80  A    between atoms: _200  and  _201
REMARK   81  A    between atoms: _200  and  _203
REMARK   82  A    between atoms: _203  and  _204
REMARK   83  A    between atoms: _207  and  _209
REMARK   84  A    between atoms: _209  and  _210
REMARK   85  A    between atoms: _209  and  _212
REMARK   86  A    between atoms: _212  and  _213
REMARK   87  A    between atoms: _216  and  _218
REMARK   88  A    between atoms: _218  and  _219
REMARK   89  A    between atoms: _221  and  _223
REMARK   90  A    between atoms: _223  and  _224
REMARK   91  A    between atoms: _223  and  _226
REMARK   92  A    between atoms: _226  and  _227
REMARK   93  A    between atoms: _227  and  _228
REMARK   94  A    between atoms: _228  and  _229
REMARK   95  A    between atoms: _238  and  _240
REMARK   96  A    between atoms: _240  and  _241
REMARK   97  A    between atoms: _240  and  _243
REMARK   98  A    between atoms: _243  and  _244
REMARK   99  A    between atoms: _249  and  _251
REMARK  100  A    between atoms: _251  and  _252
REMARK  101  A    between atoms: _251  and  _254
REMARK  102  A    between atoms: _254  and  _255
REMARK  103  A    between atoms: _255  and  _256
REMARK  104  A    between atoms: _256  and  _257
REMARK  105  A    between atoms: _266  and  _268
REMARK  106  A    between atoms: _268  and  _269
REMARK  107  A    between atoms: _268  and  _271
REMARK  108  A    between atoms: _271  and  _272
REMARK  109  A    between atoms: _275  and  _277
REMARK  110  A    between atoms: _277  and  _278
REMARK  111  A    between atoms: _277  and  _280
REMARK  112  A    between atoms: _280  and  _281
REMARK  113  A    between atoms: _284  and  _286
REMARK  114  A    between atoms: _286  and  _287
REMARK  115  A    between atoms: _286  and  _289
REMARK  116  A    between atoms: _289  and  _290
REMARK  117  A    between atoms: _293  and  _295
REMARK  118  A    between atoms: _295  and  _296
REMARK  119  A    between atoms: _295  and  _298
REMARK  120  A    between atoms: _298  and  _299
REMARK  121  A    between atoms: _302  and  _304
REMARK  122  A    between atoms: _304  and  _305
REMARK  123  A    between atoms: _307  and  _309
REMARK  124  A    between atoms: _309  and  _310
REMARK  125  A    between atoms: _313  and  _315
REMARK  126  A    between atoms: _315  and  _316
REMARK  127  A    between atoms: _315  and  _318
REMARK  128  A    between atoms: _318  and  _319
REMARK  129  A    between atoms: _322  and  _324
REMARK  130  A    between atoms: _324  and  _325
REMARK  131  A    between atoms: _324  and  _327
REMARK  132  A    between atoms: _327  and  _328
REMARK  133  A    between atoms: _331  and  _333
REMARK  134  A    between atoms: _333  and  _334
REMARK  135  A    between atoms: _333  and  _336
REMARK  136  A    between atoms: _336  and  _337
REMARK  137  A    between atoms: _340  and  _342
REMARK  138  A    between atoms: _342  and  _343
REMARK  139  A    between atoms: _342  and  _345
REMARK  140  A    between atoms: _348  and  _350
REMARK  141  A    between atoms: _350  and  _351
REMARK  142  A    between atoms: _350  and  _353
REMARK  143  A    between atoms: _353  and  _354
REMARK  144  A    between atoms: _357  and  _359
REMARK  145  A    between atoms: _359  and  _360
REMARK  146  A    between atoms: _359  and  _362
REMARK  147  A    between atoms: _362  and  _363
REMARK  148  A    between atoms: _363  and  _364
REMARK  149  A    between atoms: _364  and  _365
REMARK  150  A    between atoms: _365  and  _366
REMARK  151  A    between atoms: _370  and  _372
REMARK  152  A    between atoms: _372  and  _373
REMARK  153  A    between atoms: _372  and  _375
REMARK  154  A    between atoms: _375  and  _376
REMARK  155  A    between atoms: _376  and  _377
REMARK  156  A    between atoms: _379  and  _381
REMARK  157  A    between atoms: _381  and  _382
REMARK  158  A    between atoms: _381  and  _384
REMARK  159  A    between atoms: _384  and  _385
REMARK  160  A    between atoms: _388  and  _390
REMARK  161  A    between atoms: _390  and  _391
REMARK  162  A    between atoms: _393  and  _395
REMARK  163  A    between atoms: _395  and  _396
REMARK  164  A    between atoms: _398  and  _400
REMARK  165  A    between atoms: _400  and  _401
REMARK  166  A    between atoms: _400  and  _403
REMARK  167  A    between atoms: _403  and  _404
REMARK  168  A    between atoms: _407  and  _409
REMARK  169  A    between atoms: _409  and  _410
REMARK  170  A    between atoms: _412  and  _414
REMARK  171  A    between atoms: _414  and  _415
REMARK  172  A    between atoms: _417  and  _419
REMARK  173  A    between atoms: _419  and  _420
REMARK  174  A    between atoms: _419  and  _422
REMARK  175  A    between atoms: _422  and  _423
REMARK  176  A    between atoms: _429  and  _431
REMARK  177  A    between atoms: _431  and  _432
REMARK  178  A    between atoms: _431  and  _434
REMARK  179  A    between atoms: _434  and  _435
REMARK  180  A    between atoms: _438  and  _440
REMARK  181  A    between atoms: _440  and  _441
REMARK  182  A    between atoms: _440  and  _443
REMARK  183  A    between atoms: _446  and  _448
REMARK  184  A    between atoms: _448  and  _449
REMARK  185  A    between atoms: _448  and  _451
REMARK  186  A    between atoms: _451  and  _452
REMARK  187  A    between atoms: _455  and  _457
REMARK  188  A    between atoms: _457  and  _458
REMARK  189  A    between atoms: _457  and  _460
REMARK  190  A    between atoms: _460  and  _461
REMARK  191  A    between atoms: _465  and  _466
REMARK  192  A    between atoms: _471  and  _473
REMARK  193  A    between atoms: _473  and  _474
REMARK  194  A    between atoms: _473  and  _476
REMARK  195  A    between atoms: _479  and  _481
REMARK  196  A    between atoms: _481  and  _482
REMARK  197  A    between atoms: _481  and  _484
REMARK  198  A    between atoms: _484  and  _485
REMARK  199  A    between atoms: _490  and  _492
REMARK  200  A    between atoms: _492  and  _493
REMARK  201  A    between atoms: _492  and  _495
REMARK  202  A    between atoms: _495  and  _496
REMARK  203  A    between atoms: _499  and  _501
REMARK  204  A    between atoms: _501  and  _502
REMARK  205  A    between atoms: _501  and  _504
REMARK  206  A    between atoms: _504  and  _505
REMARK  207  A    between atoms: _508  and  _510
REMARK  208  A    between atoms: _510  and  _511
REMARK  209  A    between atoms: _513  and  _515
REMARK  210  A    between atoms: _515  and  _516
REMARK  211  A    between atoms: _515  and  _518
REMARK  212  A    between atoms: _518  and  _519
REMARK  213  A    between atoms: _519  and  _520
REMARK  214  A    between atoms: _520  and  _521
REMARK  215  A    between atoms: _530  and  _532
REMARK  216  A    between atoms: _532  and  _533
REMARK  217  A    between atoms: _532  and  _535
REMARK  218  A    between atoms: _535  and  _536
REMARK                            x       y       z     vdW  Elec       q    Type
REMARK                         _______ _______ _______ _____ _____    ______ ____
ROOT
ATOM      1  C   GLY A   5      20.561  25.054  15.801  0.00  0.00    +0.243 C 
ATOM      2  N   ALA A   6      21.861  25.023  16.094  0.00  0.00    -0.297 N 
ATOM      3  H   ALA A   6      22.150  24.936  17.089  0.00  0.00    +0.150 HD
ATOM      4  O   GLY A   5      20.113  25.209  14.651  0.00  0.00    -0.273 OA
ENDROOT
BRANCH   2   5
ATOM      5  CA  ALA A   6      22.890  25.107  15.066  0.00  0.00    +0.149 C 
ATOM      6  CB  ALA A   6      23.956  26.082  15.499  0.00  0.00    +0.031 C 
BRANCH   5   7
ATOM      7  C   ALA A   6      23.508  23.725  14.851  0.00  0.00    +0.241 C 
ATOM      8  O   ALA A   6      23.995  23.104  15.809  0.00  0.00    -0.273 OA
ATOM      9  N   ASP A   7      23.497  23.225  13.613  0.00  0.00    -0.297 N 
ATOM     10  H   ASP A   7      22.968  23.732  12.875  0.00  0.00    +0.150 HD
BRANCH   9  11
ATOM     11  CA  ASP A   7      24.198  21.995  13.253  0.00  0.00    +0.160 C 
BRANCH  11  12
ATOM     12  C   ASP A   7      25.694  22.216  13.416  0.00  0.00    +0.241 C 
ATOM     13  O   ASP A   7      26.429  21.297  13.810  0.00  0.00    -0.273 OA
ATOM     14  N   ASP A   8      26.133  23.421  13.053  0.00  0.00    -0.297 N 
ATOM     15  H   ASP A   8      25.430  24.163  12.863  0.00  0.00    +0.150 HD
BRANCH  14  16
ATOM     16  CA  ASP A   8      27.544  23.756  12.908  0.00  0.00    +0.160 C 
BRANCH  16  17
ATOM     17  C   ASP A   8      27.994  24.833  13.874  0.00  0.00    +0.241 C 
ATOM     18  O   ASP A   8      27.216  25.686  14.315  0.00  0.00    -0.273 OA
ATOM     19  N   THR A   9      29.289  24.808  14.162  0.00  0.00    -0.295 N 
ATOM     20  H   THR A   9      29.855  24.008  13.814  0.00  0.00    +0.150 HD
BRANCH  19  21
ATOM     21  CA  THR A   9      29.962  25.841  14.940  0.00  0.00    +0.176 C 
BRANCH  21  22
ATOM     22  C   THR A   9      30.451  26.942  14.001  0.00  0.00    +0.243 C 
ATOM     23  N   VAL A  10      30.050  28.191  14.280  0.00  0.00    -0.298 N 
ATOM     24  H   VAL A  10      29.515  28.363  15.155  0.00  0.00    +0.150 HD
ATOM     25  O   THR A   9      31.142  26.651  13.033  0.00  0.00    -0.273 OA
BRANCH  23  26
ATOM     26  CA  VAL A  10      30.337  29.311  13.401  0.00  0.00    +0.137 C 
BRANCH  26  27
ATOM     27  CB  VAL A  10      29.100  29.801  12.619  0.00  0.00    +0.026 C 
ATOM     28  CG2 VAL A  10      28.364  28.643  11.966  0.00  0.00    +0.002 C 
ATOM     29  CG1 VAL A  10      29.549  30.772  11.525  0.00  0.00    +0.002 C 
ENDBRANCH  26  27
BRANCH  26  30
ATOM     30  C   VAL A  10      30.878  30.432  14.266  0.00  0.00    +0.227 C 
ATOM     31  O   VAL A  10      30.208  30.883  15.201  0.00  0.00    -0.286 OA
ENDBRANCH  26  30
ENDBRANCH  23  26
ENDBRANCH  21  22
BRANCH  21  32
ATOM     32  CB  THR A   9      31.114  25.212  15.730  0.00  0.00    +0.137 C 
ATOM     33  CG2 THR A   9      31.953  26.257  16.471  0.00  0.00    +0.034 C 
BRANCH  32  34
ATOM     34  OG1 THR A   9      30.556  24.304  16.694  0.00  0.00    -0.382 OA
ATOM     35  HG1 THR A   9      30.042  23.601  16.224  0.00  0.00    +0.210 HD
ENDBRANCH  32  34
ENDBRANCH  21  32
ENDBRANCH  19  21
ENDBRANCH  16  17
BRANCH  16  36
ATOM     36  CB  ASP A   8      27.794  24.293  11.490  0.00  0.00    +0.143 C 
BRANCH  36  37
ATOM     37  CG  ASP A   8      27.324  23.347  10.407  0.00  0.00    +0.367 C 
ATOM     38  OD2 ASP A   8      27.563  22.122  10.514  0.00  0.00    -0.246 OA
ATOM     39  OD1 ASP A   8      26.747  23.878   9.427  0.00  0.00    -0.246 OA
ENDBRANCH  36  37
ENDBRANCH  16  36
ENDBRANCH  14  16
ENDBRANCH  11  12
BRANCH  11  40
ATOM     40  CB  ASP A   7      23.941  21.585  11.803  0.00  0.00    +0.143 C 
BRANCH  40  41
ATOM     41  CG  ASP A   7      22.481  21.362  11.462  0.00  0.00    +0.367 C 
ATOM     42  OD2 ASP A   7      21.624  21.210  12.352  0.00  0.00    -0.246 OA
ATOM     43  OD1 ASP A   7      22.214  21.288  10.247  0.00  0.00    -0.246 OA
ENDBRANCH  40  41
ENDBRANCH  11  40
ENDBRANCH   9  11
ENDBRANCH   5   7
ENDBRANCH   2   5
BRANCH   1  44
ATOM     44  CA  GLY A   5      19.598  24.857  16.950  0.00  0.00    +0.176 C 
BRANCH  44  46
ATOM     45  C   THR A   4      20.645  23.578  18.742  0.00  0.00    +0.243 C 
ATOM     46  N   GLY A   5      20.216  24.744  18.257  0.00  0.00    -0.295 N 
ATOM     47  H   GLY A   5      20.328  25.601  18.836  0.00  0.00    +0.150 HD
ATOM     48  O   THR A   4      20.525  22.501  18.150  0.00  0.00    -0.273 OA
BRANCH  45  49
ATOM     49  CA  THR A   4      21.373  23.585  20.077  0.00  0.00    +0.176 C 
BRANCH  49  51
ATOM     50  C   ASP A   3      22.852  25.475  19.780  0.00  0.00    +0.241 C 
ATOM     51  N   THR A   4      21.873  24.903  20.464  0.00  0.00    -0.295 N 
ATOM     52  H   THR A   4      21.457  25.394  21.281  0.00  0.00    +0.150 HD
ATOM     53  O   ASP A   3      23.323  24.970  18.752  0.00  0.00    -0.273 OA
BRANCH  50  54
ATOM     54  CA  ASP A   3      23.331  26.831  20.283  0.00  0.00    +0.160 C 
BRANCH  54  57
ATOM     55  C   LEU A   2      24.450  27.225  22.420  0.00  0.00    +0.241 C 
ATOM     56  O   LEU A   2      23.439  27.651  22.968  0.00  0.00    -0.273 OA
ATOM     57  N   ASP A   3      24.450  26.691  21.197  0.00  0.00    -0.297 N 
ATOM     58  H   ASP A   3      25.284  26.153  20.887  0.00  0.00    +0.150 HD
BRANCH  55  59
ATOM     59  CA  LEU A   2      25.794  27.285  23.128  0.00  0.00    +0.149 C 
BRANCH  59  61
ATOM     60  C   LEU A   1      26.490  29.436  22.278  0.00  0.00    +0.238 C 
ATOM     61  N   LEU A   2      26.123  28.693  23.317  0.00  0.00    -0.297 N 
ATOM     62  H   LEU A   2      26.070  29.116  24.266  0.00  0.00    +0.150 HD
ATOM     63  O   LEU A   1      26.687  28.952  21.161  0.00  0.00    -0.274 OA
BRANCH  60  64
ATOM     64  CA  LEU A   1      26.678  30.922  22.534  0.00  0.00    +0.145 C 
BRANCH  64  65
ATOM     65  N   LEU A   1      28.013  31.338  22.177  0.00  0.00    -0.238 NA
ATOM     66  H   LEU A   1      28.196  31.584  21.183  0.00  0.00    +0.142 HD
ENDBRANCH  64  65
BRANCH  64  67
ATOM     67  CB  LEU A   1      25.693  31.730  21.698  0.00  0.00    +0.026 C 
BRANCH  67  68
ATOM     68  CG  LEU A   1      24.198  31.513  21.911  0.00  0.00    +0.002 C 
ATOM     69  CD2 LEU A   1      23.770  32.007  23.273  0.00  0.00    +0.000 C 
ATOM     70  CD1 LEU A   1      23.444  32.250  20.796  0.00  0.00    +0.000 C 
ENDBRANCH  67  68
ENDBRANCH  64  67
ENDBRANCH  60  64
ENDBRANCH  59  61
BRANCH  59  71
ATOM     71  CB  LEU A   2      25.744  26.545  24.469  0.00  0.00    +0.029 C 
BRANCH  71  72
ATOM     72  CG  LEU A   2      26.983  26.615  25.375  0.00  0.00    +0.002 C 
ATOM     73  CD2 LEU A   2      26.744  25.854  26.691  0.00  0.00    +0.000 C 
ATOM     74  CD1 LEU A   2      28.209  26.091  24.594  0.00  0.00    +0.000 C 
ENDBRANCH  71  72
ENDBRANCH  59  71
ENDBRANCH  55  59
ENDBRANCH  54  57
BRANCH  54  75
ATOM     75  CB  ASP A   3      23.797  27.719  19.126  0.00  0.00    +0.143 C 
BRANCH  75  76
ATOM     76  CG  ASP A   3      22.665  28.160  18.204  0.00  0.00    +0.367 C 
ATOM     77  OD2 ASP A   3      21.536  27.601  18.307  0.00  0.00    -0.246 OA
ATOM     78  OD1 ASP A   3      22.914  29.035  17.346  0.00  0.00    -0.246 OA
ENDBRANCH  75  76
ENDBRANCH  54  75
ENDBRANCH  50  54
ENDBRANCH  49  51
BRANCH  49  79
ATOM     79  CB  THR A   4      20.475  22.978  21.153  0.00  0.00    +0.137 C 
ATOM     80  CG2 THR A   4      21.259  22.734  22.450  0.00  0.00    +0.034 C 
BRANCH  79  81
ATOM     81  OG1 THR A   4      19.368  23.841  21.412  0.00  0.00    -0.382 OA
ATOM     82  HG1 THR A   4      18.844  23.962  20.581  0.00  0.00    +0.210 HD
ENDBRANCH  79  81
ENDBRANCH  49  79
ENDBRANCH  45  49
ENDBRANCH  44  46
ENDBRANCH   1  44
TORSDOF 35
REMARK  Name = ../refined-set-2016/3o9e/3o9e_pocket.pdb
REMARK  218 active torsions:
REMARK  status: ('A' for Active; 'I' for Inactive)
REMARK    1  A    between atoms: _1  and  _3
REMARK    2  A    between atoms: _3  and  _4
REMARK    3  A    between atoms: _3  and  _6
REMARK    4  A    between atoms: _6  and  _7
REMARK    5  A    between atoms: _7  and  _8
REMARK    6  A    between atoms: _8  and  _9
REMARK    7  A    between atoms: _18  and  _20
REMARK    8  A    between atoms: _20  and  _21
REMARK    9  A    between atoms: _20  and  _23
REMARK   10  A    between atoms: _23  and  _24
REMARK   11  A    between atoms: _27  and  _29
REMARK   12  A    between atoms: _29  and  _30
REMARK   13  A    between atoms: _29  and  _32
REMARK   14  A    between atoms: _32  and  _33
REMARK   15  A    between atoms: _36  and  _38
REMARK   16  A    between atoms: _38  and  _39
REMARK   17  A    between atoms: _38  and  _41
REMARK   18  A    between atoms: _41  and  _42
REMARK   19  A    between atoms: _45  and  _47
REMARK   20  A    between atoms: _47  and  _48
REMARK   21  A    between atoms: _47  and  _50
REMARK   22  A    between atoms: _50  and  _51
REMARK   23  A    between atoms: _54  and  _56
REMARK   24  A    between atoms: _56  and  _57
REMARK   25  A    between atoms: _59  and  _61
REMARK   26  A    between atoms: _61  and  _62
REMARK   27  A    between atoms: _65  and  _67
REMARK   28  A    between atoms: _67  and  _68
REMARK   29  A    between atoms: _67  and  _70
REMARK   30  A    between atoms: _70  and  _71
REMARK   31  A    between atoms: _74  and  _76
REMARK   32  A    between atoms: _76  and  _77
REMARK   33  A    between atoms: _76  and  _79
REMARK   34  A    between atoms: _79  and  _80
REMARK   35  A    between atoms: _83  and  _85
REMARK   36  A    between atoms: _85  and  _86
REMARK   37  A    between atoms: _85  and  _88
REMARK   38  A    between atoms: _88  and  _89
REMARK   39  A    between atoms: _92  and  _94
REMARK   40  A    between atoms: _94  and  _95
REMARK   41  A    between atoms: _94  and  _97
REMARK   42  A    between atoms: _100  and  _102
REMARK   43  A    between atoms: _102  and  _103
REMARK   44  A    between atoms: _102  and  _105
REMARK   45  A    between atoms: _105  and  _106
REMARK   46  A    between atoms: _109  and  _111
REMARK   47  A    between atoms: _111  and  _112
REMARK   48  A    between atoms: _114  and  _116
REMARK   49  A    between atoms: _116  and  _117
REMARK   50  A    between atoms: _119  and  _121
REMARK   51  A    between atoms: _121  and  _122
REMARK   52  A    between atoms: _121  and  _124
REMARK   53  A    between atoms: _124  and  _125
REMARK   54  A    between atoms: _128  and  _130
REMARK   55  A    between atoms: _130  and  _131
REMARK   56  A    between atoms: _133  and  _135
REMARK   57  A    between atoms: _135  and  _136
REMARK   58  A    between atoms: _138  and  _140
REMARK   59  A    between atoms: _140  and  _141
REMARK   60  A    between atoms: _140  and  _143
REMARK   61  A    between atoms: _143  and  _144
REMARK   62  A    between atoms: _147  and  _149
REMARK   63  A    between atoms: _149  and  _150
REMARK   64  A    between atoms: _149  and  _152
REMARK   65  A    between atoms: _152  and  _153
REMARK   66  A    between atoms: _157  and  _158
REMARK   67  A    between atoms: _163  and  _165
REMARK   68  A    between atoms: _165  and  _166
REMARK   69  A    between atoms: _165  and  _168
REMARK   70  A    between atoms: _168  and  _169
REMARK   71  A    between atoms: _173  and  _174
REMARK   72  A    between atoms: _179  and  _181
REMARK   73  A    between atoms: _181  and  _182
REMARK   74  A    between atoms: _181  and  _184
REMARK   75  A    between atoms: _187  and  _189
REMARK   76  A    between atoms: _189  and  _190
REMARK   77  A    between atoms: _189  and  _192
REMARK   78  A    between atoms: _192  and  _193
REMARK   79  A    between atoms: _198  and  _200
REMARK   80  A    between atoms: _200  and  _201
REMARK   81  A    between atoms: _200  and  _203
REMARK   82  A    between atoms: _203  and  _204
REMARK   83  A    between atoms: _207  and  _209
REMARK   84  A    between atoms: _209  and  _210
REMARK   85  A    between atoms: _209  and  _212
REMARK   86  A    between atoms: _212  and  _213
REMARK   87  A    between atoms: _216  and  _218
REMARK   88  A    between atoms: _218  and  _219
REMARK   89  A    between atoms: _221  and  _223
REMARK   90  A    between atoms: _223  and  _224
REMARK   91  A    between atoms: _223  and  _226
REMARK   92  A    between atoms: _226  and  _227
REMARK   93  A    between atoms: _227  and  _228
REMARK   94  A    between atoms: _228  and  _229
REMARK   95  A    between atoms: _238  and  _240
REMARK   96  A    between atoms: _240  and  _241
REMARK   97  A    between atoms: _240  and  _243
REMARK   98  A    between atoms: _243  and  _244
REMARK   99  A    between atoms: _249  and  _251
REMARK  100  A    between atoms: _251  and  _252
REMARK  101  A    between atoms: _251  and  _254
REMARK  102  A    between atoms: _254  and  _255
REMARK  103  A    between atoms: _255  and  _256
REMARK  104  A    between atoms: _256  and  _257
REMARK  105  A    between atoms: _266  and  _268
REMARK  106  A    between atoms: _268  and  _269
REMARK  107  A    between atoms: _268  and  _271
REMARK  108  A    between atoms: _271  and  _272
REMARK  109  A    between atoms: _275  and  _277
REMARK  110  A    between atoms: _277  and  _278
REMARK  111  A    between atoms: _277  and  _280
REMARK  112  A    between atoms: _280  and  _281
REMARK  113  A    between atoms: _284  and  _286
REMARK  114  A    between atoms: _286  and  _287
REMARK  115  A    between atoms: _286  and  _289
REMARK  116  A    between atoms: _289  and  _290
REMARK  117  A    between atoms: _293  and  _295
REMARK  118  A    between atoms: _295  and  _296
REMARK  119  A    between atoms: _295  and  _298
REMARK  120  A    between atoms: _298  and  _299
REMARK  121  A    between atoms: _302  and  _304
REMARK  122  A    between atoms: _304  and  _305
REMARK  123  A    between atoms: _307  and  _309
REMARK  124  A    between atoms: _309  and  _310
REMARK  125  A    between atoms: _313  and  _315
REMARK  126  A    between atoms: _315  and  _316
REMARK  127  A    between atoms: _315  and  _318
REMARK  128  A    between atoms: _318  and  _319
REMARK  129  A    between atoms: _322  and  _324
REMARK  130  A    between atoms: _324  and  _325
REMARK  131  A    between atoms: _324  and  _327
REMARK  132  A    between atoms: _327  and  _328
REMARK  133  A    between atoms: _331  and  _333
REMARK  134  A    between atoms: _333  and  _334
REMARK  135  A    between atoms: _333  and  _336
REMARK  136  A    between atoms: _336  and  _337
REMARK  137  A    between atoms: _340  and  _342
REMARK  138  A    between atoms: _342  and  _343
REMARK  139  A    between atoms: _342  and  _345
REMARK  140  A    between atoms: _348  and  _350
REMARK  141  A    between atoms: _350  and  _351
REMARK  142  A    between atoms: _350  and  _353
REMARK  143  A    between atoms: _353  and  _354
REMARK  144  A    between atoms: _357  and  _359
REMARK  145  A    between atoms: _359  and  _360
REMARK  146  A    between atoms: _359  and  _362
REMARK  147  A    between atoms: _362  and  _363
REMARK  148  A    between atoms: _363  and  _364
REMARK  149  A    between atoms: _364  and  _365
REMARK  150  A    between atoms: _365  and  _366
REMARK  151  A    between atoms: _370  and  _372
REMARK  152  A    between atoms: _372  and  _373
REMARK  153  A    between atoms: _372  and  _375
REMARK  154  A    between atoms: _375  and  _376
REMARK  155  A    between atoms: _376  and  _377
REMARK  156  A    between atoms: _379  and  _381
REMARK  157  A    between atoms: _381  and  _382
REMARK  158  A    between atoms: _381  and  _384
REMARK  159  A    between atoms: _384  and  _385
REMARK  160  A    between atoms: _388  and  _390
REMARK  161  A    between atoms: _390  and  _391
REMARK  162  A    between atoms: _393  and  _395
REMARK  163  A    between atoms: _395  and  _396
REMARK  164  A    between atoms: _398  and  _400
REMARK  165  A    between atoms: _400  and  _401
REMARK  166  A    between atoms: _400  and  _403
REMARK  167  A    between atoms: _403  and  _404
REMARK  168  A    between atoms: _407  and  _409
REMARK  169  A    between atoms: _409  and  _410
REMARK  170  A    between atoms: _412  and  _414
REMARK  171  A    between atoms: _414  and  _415
REMARK  172  A    between atoms: _417  and  _419
REMARK  173  A    between atoms: _419  and  _420
REMARK  174  A    between atoms: _419  and  _422
REMARK  175  A    between atoms: _422  and  _423
REMARK  176  A    between atoms: _429  and  _431
REMARK  177  A    between atoms: _431  and  _432
REMARK  178  A    between atoms: _431  and  _434
REMARK  179  A    between atoms: _434  and  _435
REMARK  180  A    between atoms: _438  and  _440
REMARK  181  A    between atoms: _440  and  _441
REMARK  182  A    between atoms: _440  and  _443
REMARK  183  A    between atoms: _446  and  _448
REMARK  184  A    between atoms: _448  and  _449
REMARK  185  A    between atoms: _448  and  _451
REMARK  186  A    between atoms: _451  and  _452
REMARK  187  A    between atoms: _455  and  _457
REMARK  188  A    between atoms: _457  and  _458
REMARK  189  A    between atoms: _457  and  _460
REMARK  190  A    between atoms: _460  and  _461
REMARK  191  A    between atoms: _465  and  _466
REMARK  192  A    between atoms: _471  and  _473
REMARK  193  A    between atoms: _473  and  _474
REMARK  194  A    between atoms: _473  and  _476
REMARK  195  A    between atoms: _479  and  _481
REMARK  196  A    between atoms: _481  and  _482
REMARK  197  A    between atoms: _481  and  _484
REMARK  198  A    between atoms: _484  and  _485
REMARK  199  A    between atoms: _490  and  _492
REMARK  200  A    between atoms: _492  and  _493
REMARK  201  A    between atoms: _492  and  _495
REMARK  202  A    between atoms: _495  and  _496
REMARK  203  A    between atoms: _499  and  _501
REMARK  204  A    between atoms: _501  and  _502
REMARK  205  A    between atoms: _501  and  _504
REMARK  206  A    between atoms: _504  and  _505
REMARK  207  A    between atoms: _508  and  _510
REMARK  208  A    between atoms: _510  and  _511
REMARK  209  A    between atoms: _513  and  _515
REMARK  210  A    between atoms: _515  and  _516
REMARK  211  A    between atoms: _515  and  _518
REMARK  212  A    between atoms: _518  and  _519
REMARK  213  A    between atoms: _519  and  _520
REMARK  214  A    between atoms: _520  and  _521
REMARK  215  A    between atoms: _530  and  _532
REMARK  216  A    between atoms: _532  and  _533
REMARK  217  A    between atoms: _532  and  _535
REMARK  218  A    between atoms: _535  and  _536
REMARK                            x       y       z     vdW  Elec       q    Type
REMARK                         _______ _______ _______ _____ _____    ______ ____
ROOT
ATOM      1  C   GLY A   3      19.070  31.046   8.428  0.00  0.00    +0.243 C 
ATOM      2  N   ILE A   4      18.539  31.697   9.453  0.00  0.00    -0.297 N 
ATOM      3  H   ILE A   4      19.101  31.865  10.312  0.00  0.00    +0.150 HD
ATOM      4  O   GLY A   3      18.459  30.894   7.361  0.00  0.00    -0.273 OA
ENDROOT
BRANCH   2   5
ATOM      5  CA  ILE A   4      17.180  32.172   9.373  0.00  0.00    +0.149 C 
BRANCH   5   6
ATOM      6  C   ILE A   4      16.999  33.235   8.299  0.00  0.00    +0.241 C 
ATOM      7  N   GLY A   5      18.055  33.989   7.998  0.00  0.00    -0.295 N 
ATOM      8  H   GLY A   5      18.983  33.754   8.403  0.00  0.00    +0.150 HD
ATOM      9  O   ILE A   4      15.904  33.360   7.748  0.00  0.00    -0.273 OA
BRANCH   7  10
ATOM     10  CA  GLY A   5      17.931  35.138   7.110  0.00  0.00    +0.176 C 
BRANCH  10  11
ATOM     11  C   GLY A   5      18.514  34.940   5.733  0.00  0.00    +0.243 C 
ATOM     12  N   GLY A   6      18.964  33.727   5.427  0.00  0.00    -0.296 N 
ATOM     13  H   GLY A   6      18.887  32.967   6.133  0.00  0.00    +0.150 HD
ATOM     14  O   GLY A   5      18.508  35.872   4.928  0.00  0.00    -0.273 OA
BRANCH  12  15
ATOM     15  CA  GLY A   6      19.557  33.434   4.141  0.00  0.00    +0.163 C 
BRANCH  15  16
ATOM     16  C   GLY A   6      20.919  32.788   4.272  0.00  0.00    +0.229 C 
ATOM     17  O   GLY A   6      21.263  32.236   5.314  0.00  0.00    -0.286 OA
ENDBRANCH  15  16
ENDBRANCH  12  15
ENDBRANCH  10  11
ENDBRANCH   7  10
ENDBRANCH   5   6
BRANCH   5  18
ATOM     18  CB  ILE A   4      16.688  32.684  10.743  0.00  0.00    +0.027 C 
ATOM     19  CG2 ILE A   4      17.085  34.140  10.970  0.00  0.00    +0.002 C 
BRANCH  18  20
ATOM     20  CG1 ILE A   4      15.185  32.486  10.863  0.00  0.00    +0.002 C 
ATOM     21  CD1 ILE A   4      14.607  32.937  12.209  0.00  0.00    +0.000 C 
ENDBRANCH  18  20
ENDBRANCH   5  18
ENDBRANCH   2   5
BRANCH   1  22
ATOM     22  CA  GLY A   3      20.467  30.496   8.616  0.00  0.00    +0.176 C 
BRANCH  22  25
ATOM     23  C   GLY A   2      21.599  29.103   6.963  0.00  0.00    +0.243 C 
ATOM     24  O   GLY A   2      21.675  28.134   7.705  0.00  0.00    -0.273 OA
ATOM     25  N   GLY A   3      21.086  30.266   7.320  0.00  0.00    -0.295 N 
ATOM     26  H   GLY A   3      21.126  31.054   6.643  0.00  0.00    +0.150 HD
BRANCH  23  27
ATOM     27  CA  GLY A   2      22.077  28.997   5.538  0.00  0.00    +0.176 C 
BRANCH  27  29
ATOM     28  C   ILE A   1      24.476  28.796   5.093  0.00  0.00    +0.238 C 
ATOM     29  N   GLY A   2      23.319  28.240   5.429  0.00  0.00    -0.296 N 
ATOM     30  H   GLY A   2      23.297  27.219   5.623  0.00  0.00    +0.150 HD
ATOM     31  O   ILE A   1      24.633  29.991   4.877  0.00  0.00    -0.274 OA
BRANCH  28  32
ATOM     32  CA  ILE A   1      25.651  27.838   5.010  0.00  0.00    +0.145 C 
BRANCH  32  33
ATOM     33  N   ILE A   1      26.642  28.352   4.071  0.00  0.00    -0.238 NA
ATOM     34  H   ILE A   1      26.887  29.362   4.099  0.00  0.00    +0.142 HD
ENDBRANCH  32  33
BRANCH  32  35
ATOM     35  CB  ILE A   1      26.208  27.583   6.420  0.00  0.00    +0.025 C 
ATOM     36  CG2 ILE A   1      27.268  26.489   6.386  0.00  0.00    +0.002 C 
BRANCH  35  37
ATOM     37  CG1 ILE A   1      26.778  28.856   7.061  0.00  0.00    +0.002 C 
ATOM     38  CD1 ILE A   1      26.915  28.724   8.555  0.00  0.00    +0.000 C 
ENDBRANCH  35  37
ENDBRANCH  32  35
ENDBRANCH  28  32
ENDBRANCH  27  29
ENDBRANCH  23  27
ENDBRANCH  22  25
ENDBRANCH   1  22
TORSDOF 16
REMARK  Name = ../refined-set-2016/3o9e/3o9e_pocket.pdb
REMARK  218 active torsions:
REMARK  status: ('A' for Active; 'I' for Inactive)
REMARK    1  A    between atoms: _1  and  _3
REMARK    2  A    between atoms: _3  and  _4
REMARK    3  A    between atoms: _3  and  _6
REMARK    4  A    between atoms: _6  and  _7
REMARK    5  A    between atoms: _7  and  _8
REMARK    6  A    between atoms: _8  and  _9
REMARK    7  A    between atoms: _18  and  _20
REMARK    8  A    between atoms: _20  and  _21
REMARK    9  A    between atoms: _20  and  _23
REMARK   10  A    between atoms: _23  and  _24
REMARK   11  A    between atoms: _27  and  _29
REMARK   12  A    between atoms: _29  and  _30
REMARK   13  A    between atoms: _29  and  _32
REMARK   14  A    between atoms: _32  and  _33
REMARK   15  A    between atoms: _36  and  _38
REMARK   16  A    between atoms: _38  and  _39
REMARK   17  A    between atoms: _38  and  _41
REMARK   18  A    between atoms: _41  and  _42
REMARK   19  A    between atoms: _45  and  _47
REMARK   20  A    between atoms: _47  and  _48
REMARK   21  A    between atoms: _47  and  _50
REMARK   22  A    between atoms: _50  and  _51
REMARK   23  A    between atoms: _54  and  _56
REMARK   24  A    between atoms: _56  and  _57
REMARK   25  A    between atoms: _59  and  _61
REMARK   26  A    between atoms: _61  and  _62
REMARK   27  A    between atoms: _65  and  _67
REMARK   28  A    between atoms: _67  and  _68
REMARK   29  A    between atoms: _67  and  _70
REMARK   30  A    between atoms: _70  and  _71
REMARK   31  A    between atoms: _74  and  _76
REMARK   32  A    between atoms: _76  and  _77
REMARK   33  A    between atoms: _76  and  _79
REMARK   34  A    between atoms: _79  and  _80
REMARK   35  A    between atoms: _83  and  _85
REMARK   36  A    between atoms: _85  and  _86
REMARK   37  A    between atoms: _85  and  _88
REMARK   38  A    between atoms: _88  and  _89
REMARK   39  A    between atoms: _92  and  _94
REMARK   40  A    between atoms: _94  and  _95
REMARK   41  A    between atoms: _94  and  _97
REMARK   42  A    between atoms: _100  and  _102
REMARK   43  A    between atoms: _102  and  _103
REMARK   44  A    between atoms: _102  and  _105
REMARK   45  A    between atoms: _105  and  _106
REMARK   46  A    between atoms: _109  and  _111
REMARK   47  A    between atoms: _111  and  _112
REMARK   48  A    between atoms: _114  and  _116
REMARK   49  A    between atoms: _116  and  _117
REMARK   50  A    between atoms: _119  and  _121
REMARK   51  A    between atoms: _121  and  _122
REMARK   52  A    between atoms: _121  and  _124
REMARK   53  A    between atoms: _124  and  _125
REMARK   54  A    between atoms: _128  and  _130
REMARK   55  A    between atoms: _130  and  _131
REMARK   56  A    between atoms: _133  and  _135
REMARK   57  A    between atoms: _135  and  _136
REMARK   58  A    between atoms: _138  and  _140
REMARK   59  A    between atoms: _140  and  _141
REMARK   60  A    between atoms: _140  and  _143
REMARK   61  A    between atoms: _143  and  _144
REMARK   62  A    between atoms: _147  and  _149
REMARK   63  A    between atoms: _149  and  _150
REMARK   64  A    between atoms: _149  and  _152
REMARK   65  A    between atoms: _152  and  _153
REMARK   66  A    between atoms: _157  and  _158
REMARK   67  A    between atoms: _163  and  _165
REMARK   68  A    between atoms: _165  and  _166
REMARK   69  A    between atoms: _165  and  _168
REMARK   70  A    between atoms: _168  and  _169
REMARK   71  A    between atoms: _173  and  _174
REMARK   72  A    between atoms: _179  and  _181
REMARK   73  A    between atoms: _181  and  _182
REMARK   74  A    between atoms: _181  and  _184
REMARK   75  A    between atoms: _187  and  _189
REMARK   76  A    between atoms: _189  and  _190
REMARK   77  A    between atoms: _189  and  _192
REMARK   78  A    between atoms: _192  and  _193
REMARK   79  A    between atoms: _198  and  _200
REMARK   80  A    between atoms: _200  and  _201
REMARK   81  A    between atoms: _200  and  _203
REMARK   82  A    between atoms: _203  and  _204
REMARK   83  A    between atoms: _207  and  _209
REMARK   84  A    between atoms: _209  and  _210
REMARK   85  A    between atoms: _209  and  _212
REMARK   86  A    between atoms: _212  and  _213
REMARK   87  A    between atoms: _216  and  _218
REMARK   88  A    between atoms: _218  and  _219
REMARK   89  A    between atoms: _221  and  _223
REMARK   90  A    between atoms: _223  and  _224
REMARK   91  A    between atoms: _223  and  _226
REMARK   92  A    between atoms: _226  and  _227
REMARK   93  A    between atoms: _227  and  _228
REMARK   94  A    between atoms: _228  and  _229
REMARK   95  A    between atoms: _238  and  _240
REMARK   96  A    between atoms: _240  and  _241
REMARK   97  A    between atoms: _240  and  _243
REMARK   98  A    between atoms: _243  and  _244
REMARK   99  A    between atoms: _249  and  _251
REMARK  100  A    between atoms: _251  and  _252
REMARK  101  A    between atoms: _251  and  _254
REMARK  102  A    between atoms: _254  and  _255
REMARK  103  A    between atoms: _255  and  _256
REMARK  104  A    between atoms: _256  and  _257
REMARK  105  A    between atoms: _266  and  _268
REMARK  106  A    between atoms: _268  and  _269
REMARK  107  A    between atoms: _268  and  _271
REMARK  108  A    between atoms: _271  and  _272
REMARK  109  A    between atoms: _275  and  _277
REMARK  110  A    between atoms: _277  and  _278
REMARK  111  A    between atoms: _277  and  _280
REMARK  112  A    between atoms: _280  and  _281
REMARK  113  A    between atoms: _284  and  _286
REMARK  114  A    between atoms: _286  and  _287
REMARK  115  A    between atoms: _286  and  _289
REMARK  116  A    between atoms: _289  and  _290
REMARK  117  A    between atoms: _293  and  _295
REMARK  118  A    between atoms: _295  and  _296
REMARK  119  A    between atoms: _295  and  _298
REMARK  120  A    between atoms: _298  and  _299
REMARK  121  A    between atoms: _302  and  _304
REMARK  122  A    between atoms: _304  and  _305
REMARK  123  A    between atoms: _307  and  _309
REMARK  124  A    between atoms: _309  and  _310
REMARK  125  A    between atoms: _313  and  _315
REMARK  126  A    between atoms: _315  and  _316
REMARK  127  A    between atoms: _315  and  _318
REMARK  128  A    between atoms: _318  and  _319
REMARK  129  A    between atoms: _322  and  _324
REMARK  130  A    between atoms: _324  and  _325
REMARK  131  A    between atoms: _324  and  _327
REMARK  132  A    between atoms: _327  and  _328
REMARK  133  A    between atoms: _331  and  _333
REMARK  134  A    between atoms: _333  and  _334
REMARK  135  A    between atoms: _333  and  _336
REMARK  136  A    between atoms: _336  and  _337
REMARK  137  A    between atoms: _340  and  _342
REMARK  138  A    between atoms: _342  and  _343
REMARK  139  A    between atoms: _342  and  _345
REMARK  140  A    between atoms: _348  and  _350
REMARK  141  A    between atoms: _350  and  _351
REMARK  142  A    between atoms: _350  and  _353
REMARK  143  A    between atoms: _353  and  _354
REMARK  144  A    between atoms: _357  and  _359
REMARK  145  A    between atoms: _359  and  _360
REMARK  146  A    between atoms: _359  and  _362
REMARK  147  A    between atoms: _362  and  _363
REMARK  148  A    between atoms: _363  and  _364
REMARK  149  A    between atoms: _364  and  _365
REMARK  150  A    between atoms: _365  and  _366
REMARK  151  A    between atoms: _370  and  _372
REMARK  152  A    between atoms: _372  and  _373
REMARK  153  A    between atoms: _372  and  _375
REMARK  154  A    between atoms: _375  and  _376
REMARK  155  A    between atoms: _376  and  _377
REMARK  156  A    between atoms: _379  and  _381
REMARK  157  A    between atoms: _381  and  _382
REMARK  158  A    between atoms: _381  and  _384
REMARK  159  A    between atoms: _384  and  _385
REMARK  160  A    between atoms: _388  and  _390
REMARK  161  A    between atoms: _390  and  _391
REMARK  162  A    between atoms: _393  and  _395
REMARK  163  A    between atoms: _395  and  _396
REMARK  164  A    between atoms: _398  and  _400
REMARK  165  A    between atoms: _400  and  _401
REMARK  166  A    between atoms: _400  and  _403
REMARK  167  A    between atoms: _403  and  _404
REMARK  168  A    between atoms: _407  and  _409
REMARK  169  A    between atoms: _409  and  _410
REMARK  170  A    between atoms: _412  and  _414
REMARK  171  A    between atoms: _414  and  _415
REMARK  172  A    between atoms: _417  and  _419
REMARK  173  A    between atoms: _419  and  _420
REMARK  174  A    between atoms: _419  and  _422
REMARK  175  A    between atoms: _422  and  _423
REMARK  176  A    between atoms: _429  and  _431
REMARK  177  A    between atoms: _431  and  _432
REMARK  178  A    between atoms: _431  and  _434
REMARK  179  A    between atoms: _434  and  _435
REMARK  180  A    between atoms: _438  and  _440
REMARK  181  A    between atoms: _440  and  _441
REMARK  182  A    between atoms: _440  and  _443
REMARK  183  A    between atoms: _446  and  _448
REMARK  184  A    between atoms: _448  and  _449
REMARK  185  A    between atoms: _448  and  _451
REMARK  186  A    between atoms: _451  and  _452
REMARK  187  A    between atoms: _455  and  _457
REMARK  188  A    between atoms: _457  and  _458
REMARK  189  A    between atoms: _457  and  _460
REMARK  190  A    between atoms: _460  and  _461
REMARK  191  A    between atoms: _465  and  _466
REMARK  192  A    between atoms: _471  and  _473
REMARK  193  A    between atoms: _473  and  _474
REMARK  194  A    between atoms: _473  and  _476
REMARK  195  A    between atoms: _479  and  _481
REMARK  196  A    between atoms: _481  and  _482
REMARK  197  A    between atoms: _481  and  _484
REMARK  198  A    between atoms: _484  and  _485
REMARK  199  A    between atoms: _490  and  _492
REMARK  200  A    between atoms: _492  and  _493
REMARK  201  A    between atoms: _492  and  _495
REMARK  202  A    between atoms: _495  and  _496
REMARK  203  A    between atoms: _499  and  _501
REMARK  204  A    between atoms: _501  and  _502
REMARK  205  A    between atoms: _501  and  _504
REMARK  206  A    between atoms: _504  and  _505
REMARK  207  A    between atoms: _508  and  _510
REMARK  208  A    between atoms: _510  and  _511
REMARK  209  A    between atoms: _513  and  _515
REMARK  210  A    between atoms: _515  and  _516
REMARK  211  A    between atoms: _515  and  _518
REMARK  212  A    between atoms: _518  and  _519
REMARK  213  A    between atoms: _519  and  _520
REMARK  214  A    between atoms: _520  and  _521
REMARK  215  A    between atoms: _530  and  _532
REMARK  216  A    between atoms: _532  and  _533
REMARK  217  A    between atoms: _532  and  _535
REMARK  218  A    between atoms: _535  and  _536
REMARK                            x       y       z     vdW  Elec       q    Type
REMARK                         _______ _______ _______ _____ _____    ______ ____
ROOT
ATOM      1  CA  ILE A   1      26.485  33.319   3.856  0.00  0.00    +0.133 C 
ENDROOT
BRANCH   1   2
ATOM      2  N   ILE A   1      25.217  32.620   3.752  0.00  0.00    -0.239 NA
ATOM      3  H   ILE A   1      25.150  31.665   4.158  0.00  0.00    +0.142 HD
ENDBRANCH   1   2
BRANCH   1   4
ATOM      4  CB  ILE A   1      26.768  33.800   5.304  0.00  0.00    +0.023 C 
ATOM      5  CG2 ILE A   1      25.663  34.746   5.771  0.00  0.00    +0.002 C 
BRANCH   4   6
ATOM      6  CG1 ILE A   1      26.956  32.618   6.267  0.00  0.00    +0.002 C 
ATOM      7  CD1 ILE A   1      27.498  33.022   7.639  0.00  0.00    +0.000 C 
ENDBRANCH   4   6
ENDBRANCH   1   4
BRANCH   1   8
ATOM      8  C   ILE A   1      27.622  32.424   3.378  0.00  0.00    +0.224 C 
ATOM      9  O   ILE A   1      27.516  31.200   3.348  0.00  0.00    -0.287 OA
ENDBRANCH   1   8
TORSDOF 4
REMARK  Name = ../refined-set-2016/3o9e/3o9e_pocket.pdb
REMARK  218 active torsions:
REMARK  status: ('A' for Active; 'I' for Inactive)
REMARK    1  A    between atoms: _1  and  _3
REMARK    2  A    between atoms: _3  and  _4
REMARK    3  A    between atoms: _3  and  _6
REMARK    4  A    between atoms: _6  and  _7
REMARK    5  A    between atoms: _7  and  _8
REMARK    6  A    between atoms: _8  and  _9
REMARK    7  A    between atoms: _18  and  _20
REMARK    8  A    between atoms: _20  and  _21
REMARK    9  A    between atoms: _20  and  _23
REMARK   10  A    between atoms: _23  and  _24
REMARK   11  A    between atoms: _27  and  _29
REMARK   12  A    between atoms: _29  and  _30
REMARK   13  A    between atoms: _29  and  _32
REMARK   14  A    between atoms: _32  and  _33
REMARK   15  A    between atoms: _36  and  _38
REMARK   16  A    between atoms: _38  and  _39
REMARK   17  A    between atoms: _38  and  _41
REMARK   18  A    between atoms: _41  and  _42
REMARK   19  A    between atoms: _45  and  _47
REMARK   20  A    between atoms: _47  and  _48
REMARK   21  A    between atoms: _47  and  _50
REMARK   22  A    between atoms: _50  and  _51
REMARK   23  A    between atoms: _54  and  _56
REMARK   24  A    between atoms: _56  and  _57
REMARK   25  A    between atoms: _59  and  _61
REMARK   26  A    between atoms: _61  and  _62
REMARK   27  A    between atoms: _65  and  _67
REMARK   28  A    between atoms: _67  and  _68
REMARK   29  A    between atoms: _67  and  _70
REMARK   30  A    between atoms: _70  and  _71
REMARK   31  A    between atoms: _74  and  _76
REMARK   32  A    between atoms: _76  and  _77
REMARK   33  A    between atoms: _76  and  _79
REMARK   34  A    between atoms: _79  and  _80
REMARK   35  A    between atoms: _83  and  _85
REMARK   36  A    between atoms: _85  and  _86
REMARK   37  A    between atoms: _85  and  _88
REMARK   38  A    between atoms: _88  and  _89
REMARK   39  A    between atoms: _92  and  _94
REMARK   40  A    between atoms: _94  and  _95
REMARK   41  A    between atoms: _94  and  _97
REMARK   42  A    between atoms: _100  and  _102
REMARK   43  A    between atoms: _102  and  _103
REMARK   44  A    between atoms: _102  and  _105
REMARK   45  A    between atoms: _105  and  _106
REMARK   46  A    between atoms: _109  and  _111
REMARK   47  A    between atoms: _111  and  _112
REMARK   48  A    between atoms: _114  and  _116
REMARK   49  A    between atoms: _116  and  _117
REMARK   50  A    between atoms: _119  and  _121
REMARK   51  A    between atoms: _121  and  _122
REMARK   52  A    between atoms: _121  and  _124
REMARK   53  A    between atoms: _124  and  _125
REMARK   54  A    between atoms: _128  and  _130
REMARK   55  A    between atoms: _130  and  _131
REMARK   56  A    between atoms: _133  and  _135
REMARK   57  A    between atoms: _135  and  _136
REMARK   58  A    between atoms: _138  and  _140
REMARK   59  A    between atoms: _140  and  _141
REMARK   60  A    between atoms: _140  and  _143
REMARK   61  A    between atoms: _143  and  _144
REMARK   62  A    between atoms: _147  and  _149
REMARK   63  A    between atoms: _149  and  _150
REMARK   64  A    between atoms: _149  and  _152
REMARK   65  A    between atoms: _152  and  _153
REMARK   66  A    between atoms: _157  and  _158
REMARK   67  A    between atoms: _163  and  _165
REMARK   68  A    between atoms: _165  and  _166
REMARK   69  A    between atoms: _165  and  _168
REMARK   70  A    between atoms: _168  and  _169
REMARK   71  A    between atoms: _173  and  _174
REMARK   72  A    between atoms: _179  and  _181
REMARK   73  A    between atoms: _181  and  _182
REMARK   74  A    between atoms: _181  and  _184
REMARK   75  A    between atoms: _187  and  _189
REMARK   76  A    between atoms: _189  and  _190
REMARK   77  A    between atoms: _189  and  _192
REMARK   78  A    between atoms: _192  and  _193
REMARK   79  A    between atoms: _198  and  _200
REMARK   80  A    between atoms: _200  and  _201
REMARK   81  A    between atoms: _200  and  _203
REMARK   82  A    between atoms: _203  and  _204
REMARK   83  A    between atoms: _207  and  _209
REMARK   84  A    between atoms: _209  and  _210
REMARK   85  A    between atoms: _209  and  _212
REMARK   86  A    between atoms: _212  and  _213
REMARK   87  A    between atoms: _216  and  _218
REMARK   88  A    between atoms: _218  and  _219
REMARK   89  A    between atoms: _221  and  _223
REMARK   90  A    between atoms: _223  and  _224
REMARK   91  A    between atoms: _223  and  _226
REMARK   92  A    between atoms: _226  and  _227
REMARK   93  A    between atoms: _227  and  _228
REMARK   94  A    between atoms: _228  and  _229
REMARK   95  A    between atoms: _238  and  _240
REMARK   96  A    between atoms: _240  and  _241
REMARK   97  A    between atoms: _240  and  _243
REMARK   98  A    between atoms: _243  and  _244
REMARK   99  A    between atoms: _249  and  _251
REMARK  100  A    between atoms: _251  and  _252
REMARK  101  A    between atoms: _251  and  _254
REMARK  102  A    between atoms: _254  and  _255
REMARK  103  A    between atoms: _255  and  _256
REMARK  104  A    between atoms: _256  and  _257
REMARK  105  A    between atoms: _266  and  _268
REMARK  106  A    between atoms: _268  and  _269
REMARK  107  A    between atoms: _268  and  _271
REMARK  108  A    between atoms: _271  and  _272
REMARK  109  A    between atoms: _275  and  _277
REMARK  110  A    between atoms: _277  and  _278
REMARK  111  A    between atoms: _277  and  _280
REMARK  112  A    between atoms: _280  and  _281
REMARK  113  A    between atoms: _284  and  _286
REMARK  114  A    between atoms: _286  and  _287
REMARK  115  A    between atoms: _286  and  _289
REMARK  116  A    between atoms: _289  and  _290
REMARK  117  A    between atoms: _293  and  _295
REMARK  118  A    between atoms: _295  and  _296
REMARK  119  A    between atoms: _295  and  _298
REMARK  120  A    between atoms: _298  and  _299
REMARK  121  A    between atoms: _302  and  _304
REMARK  122  A    between atoms: _304  and  _305
REMARK  123  A    between atoms: _307  and  _309
REMARK  124  A    between atoms: _309  and  _310
REMARK  125  A    between atoms: _313  and  _315
REMARK  126  A    between atoms: _315  and  _316
REMARK  127  A    between atoms: _315  and  _318
REMARK  128  A    between atoms: _318  and  _319
REMARK  129  A    between atoms: _322  and  _324
REMARK  130  A    between atoms: _324  and  _325
REMARK  131  A    between atoms: _324  and  _327
REMARK  132  A    between atoms: _327  and  _328
REMARK  133  A    between atoms: _331  and  _333
REMARK  134  A    between atoms: _333  and  _334
REMARK  135  A    between atoms: _333  and  _336
REMARK  136  A    between atoms: _336  and  _337
REMARK  137  A    between atoms: _340  and  _342
REMARK  138  A    between atoms: _342  and  _343
REMARK  139  A    between atoms: _342  and  _345
REMARK  140  A    between atoms: _348  and  _350
REMARK  141  A    between atoms: _350  and  _351
REMARK  142  A    between atoms: _350  and  _353
REMARK  143  A    between atoms: _353  and  _354
REMARK  144  A    between atoms: _357  and  _359
REMARK  145  A    between atoms: _359  and  _360
REMARK  146  A    between atoms: _359  and  _362
REMARK  147  A    between atoms: _362  and  _363
REMARK  148  A    between atoms: _363  and  _364
REMARK  149  A    between atoms: _364  and  _365
REMARK  150  A    between atoms: _365  and  _366
REMARK  151  A    between atoms: _370  and  _372
REMARK  152  A    between atoms: _372  and  _373
REMARK  153  A    between atoms: _372  and  _375
REMARK  154  A    between atoms: _375  and  _376
REMARK  155  A    between atoms: _376  and  _377
REMARK  156  A    between atoms: _379  and  _381
REMARK  157  A    between atoms: _381  and  _382
REMARK  158  A    between atoms: _381  and  _384
REMARK  159  A    between atoms: _384  and  _385
REMARK  160  A    between atoms: _388  and  _390
REMARK  161  A    between atoms: _390  and  _391
REMARK  162  A    between atoms: _393  and  _395
REMARK  163  A    between atoms: _395  and  _396
REMARK  164  A    between atoms: _398  and  _400
REMARK  165  A    between atoms: _400  and  _401
REMARK  166  A    between atoms: _400  and  _403
REMARK  167  A    between atoms: _403  and  _404
REMARK  168  A    between atoms: _407  and  _409
REMARK  169  A    between atoms: _409  and  _410
REMARK  170  A    between atoms: _412  and  _414
REMARK  171  A    between atoms: _414  and  _415
REMARK  172  A    between atoms: _417  and  _419
REMARK  173  A    between atoms: _419  and  _420
REMARK  174  A    between atoms: _419  and  _422
REMARK  175  A    between atoms: _422  and  _423
REMARK  176  A    between atoms: _429  and  _431
REMARK  177  A    between atoms: _431  and  _432
REMARK  178  A    between atoms: _431  and  _434
REMARK  179  A    between atoms: _434  and  _435
REMARK  180  A    between atoms: _438  and  _440
REMARK  181  A    between atoms: _440  and  _441
REMARK  182  A    between atoms: _440  and  _443
REMARK  183  A    between atoms: _446  and  _448
REMARK  184  A    between atoms: _448  and  _449
REMARK  185  A    between atoms: _448  and  _451
REMARK  186  A    between atoms: _451  and  _452
REMARK  187  A    between atoms: _455  and  _457
REMARK  188  A    between atoms: _457  and  _458
REMARK  189  A    between atoms: _457  and  _460
REMARK  190  A    between atoms: _460  and  _461
REMARK  191  A    between atoms: _465  and  _466
REMARK  192  A    between atoms: _471  and  _473
REMARK  193  A    between atoms: _473  and  _474
REMARK  194  A    between atoms: _473  and  _476
REMARK  195  A    between atoms: _479  and  _481
REMARK  196  A    between atoms: _481  and  _482
REMARK  197  A    between atoms: _481  and  _484
REMARK  198  A    between atoms: _484  and  _485
REMARK  199  A    between atoms: _490  and  _492
REMARK  200  A    between atoms: _492  and  _493
REMARK  201  A    between atoms: _492  and  _495
REMARK  202  A    between atoms: _495  and  _496
REMARK  203  A    between atoms: _499  and  _501
REMARK  204  A    between atoms: _501  and  _502
REMARK  205  A    between atoms: _501  and  _504
REMARK  206  A    between atoms: _504  and  _505
REMARK  207  A    between atoms: _508  and  _510
REMARK  208  A    between atoms: _510  and  _511
REMARK  209  A    between atoms: _513  and  _515
REMARK  210  A    between atoms: _515  and  _516
REMARK  211  A    between atoms: _515  and  _518
REMARK  212  A    between atoms: _518  and  _519
REMARK  213  A    between atoms: _519  and  _520
REMARK  214  A    between atoms: _520  and  _521
REMARK  215  A    between atoms: _530  and  _532
REMARK  216  A    between atoms: _532  and  _533
REMARK  217  A    between atoms: _532  and  _535
REMARK  218  A    between atoms: _535  and  _536
REMARK                            x       y       z     vdW  Elec       q    Type
REMARK                         _______ _______ _______ _____ _____    ______ ____
ROOT
ATOM      1  CA  LEU A   1      33.277  27.729  10.235  0.00  0.00    +0.133 C 
ENDROOT
BRANCH   1   2
ATOM      2  N   LEU A   1      33.573  26.854  11.344  0.00  0.00    -0.239 NA
ATOM      3  H   LEU A   1      32.848  26.723  12.079  0.00  0.00    +0.142 HD
ENDBRANCH   1   2
BRANCH   1   4
ATOM      4  C   LEU A   1      33.481  29.174  10.690  0.00  0.00    +0.224 C 
ATOM      5  O   LEU A   1      33.064  29.572  11.789  0.00  0.00    -0.287 OA
ENDBRANCH   1   4
BRANCH   1   6
ATOM      6  CB  LEU A   1      31.829  27.512   9.759  0.00  0.00    +0.025 C 
BRANCH   6   7
ATOM      7  CG  LEU A   1      31.428  26.078   9.430  0.00  0.00    +0.002 C 
ATOM      8  CD2 LEU A   1      29.956  26.027   8.968  0.00  0.00    +0.000 C 
ATOM      9  CD1 LEU A   1      32.332  25.445   8.392  0.00  0.00    +0.000 C 
ENDBRANCH   6   7
ENDBRANCH   1   6
TORSDOF 4
REMARK  Name = ../refined-set-2016/3o9e/3o9e_pocket.pdb
REMARK  218 active torsions:
REMARK  status: ('A' for Active; 'I' for Inactive)
REMARK    1  A    between atoms: _1  and  _3
REMARK    2  A    between atoms: _3  and  _4
REMARK    3  A    between atoms: _3  and  _6
REMARK    4  A    between atoms: _6  and  _7
REMARK    5  A    between atoms: _7  and  _8
REMARK    6  A    between atoms: _8  and  _9
REMARK    7  A    between atoms: _18  and  _20
REMARK    8  A    between atoms: _20  and  _21
REMARK    9  A    between atoms: _20  and  _23
REMARK   10  A    between atoms: _23  and  _24
REMARK   11  A    between atoms: _27  and  _29
REMARK   12  A    between atoms: _29  and  _30
REMARK   13  A    between atoms: _29  and  _32
REMARK   14  A    between atoms: _32  and  _33
REMARK   15  A    between atoms: _36  and  _38
REMARK   16  A    between atoms: _38  and  _39
REMARK   17  A    between atoms: _38  and  _41
REMARK   18  A    between atoms: _41  and  _42
REMARK   19  A    between atoms: _45  and  _47
REMARK   20  A    between atoms: _47  and  _48
REMARK   21  A    between atoms: _47  and  _50
REMARK   22  A    between atoms: _50  and  _51
REMARK   23  A    between atoms: _54  and  _56
REMARK   24  A    between atoms: _56  and  _57
REMARK   25  A    between atoms: _59  and  _61
REMARK   26  A    between atoms: _61  and  _62
REMARK   27  A    between atoms: _65  and  _67
REMARK   28  A    between atoms: _67  and  _68
REMARK   29  A    between atoms: _67  and  _70
REMARK   30  A    between atoms: _70  and  _71
REMARK   31  A    between atoms: _74  and  _76
REMARK   32  A    between atoms: _76  and  _77
REMARK   33  A    between atoms: _76  and  _79
REMARK   34  A    between atoms: _79  and  _80
REMARK   35  A    between atoms: _83  and  _85
REMARK   36  A    between atoms: _85  and  _86
REMARK   37  A    between atoms: _85  and  _88
REMARK   38  A    between atoms: _88  and  _89
REMARK   39  A    between atoms: _92  and  _94
REMARK   40  A    between atoms: _94  and  _95
REMARK   41  A    between atoms: _94  and  _97
REMARK   42  A    between atoms: _100  and  _102
REMARK   43  A    between atoms: _102  and  _103
REMARK   44  A    between atoms: _102  and  _105
REMARK   45  A    between atoms: _105  and  _106
REMARK   46  A    between atoms: _109  and  _111
REMARK   47  A    between atoms: _111  and  _112
REMARK   48  A    between atoms: _114  and  _116
REMARK   49  A    between atoms: _116  and  _117
REMARK   50  A    between atoms: _119  and  _121
REMARK   51  A    between atoms: _121  and  _122
REMARK   52  A    between atoms: _121  and  _124
REMARK   53  A    between atoms: _124  and  _125
REMARK   54  A    between atoms: _128  and  _130
REMARK   55  A    between atoms: _130  and  _131
REMARK   56  A    between atoms: _133  and  _135
REMARK   57  A    between atoms: _135  and  _136
REMARK   58  A    between atoms: _138  and  _140
REMARK   59  A    between atoms: _140  and  _141
REMARK   60  A    between atoms: _140  and  _143
REMARK   61  A    between atoms: _143  and  _144
REMARK   62  A    between atoms: _147  and  _149
REMARK   63  A    between atoms: _149  and  _150
REMARK   64  A    between atoms: _149  and  _152
REMARK   65  A    between atoms: _152  and  _153
REMARK   66  A    between atoms: _157  and  _158
REMARK   67  A    between atoms: _163  and  _165
REMARK   68  A    between atoms: _165  and  _166
REMARK   69  A    between atoms: _165  and  _168
REMARK   70  A    between atoms: _168  and  _169
REMARK   71  A    between atoms: _173  and  _174
REMARK   72  A    between atoms: _179  and  _181
REMARK   73  A    between atoms: _181  and  _182
REMARK   74  A    between atoms: _181  and  _184
REMARK   75  A    between atoms: _187  and  _189
REMARK   76  A    between atoms: _189  and  _190
REMARK   77  A    between atoms: _189  and  _192
REMARK   78  A    between atoms: _192  and  _193
REMARK   79  A    between atoms: _198  and  _200
REMARK   80  A    between atoms: _200  and  _201
REMARK   81  A    between atoms: _200  and  _203
REMARK   82  A    between atoms: _203  and  _204
REMARK   83  A    between atoms: _207  and  _209
REMARK   84  A    between atoms: _209  and  _210
REMARK   85  A    between atoms: _209  and  _212
REMARK   86  A    between atoms: _212  and  _213
REMARK   87  A    between atoms: _216  and  _218
REMARK   88  A    between atoms: _218  and  _219
REMARK   89  A    between atoms: _221  and  _223
REMARK   90  A    between atoms: _223  and  _224
REMARK   91  A    between atoms: _223  and  _226
REMARK   92  A    between atoms: _226  and  _227
REMARK   93  A    between atoms: _227  and  _228
REMARK   94  A    between atoms: _228  and  _229
REMARK   95  A    between atoms: _238  and  _240
REMARK   96  A    between atoms: _240  and  _241
REMARK   97  A    between atoms: _240  and  _243
REMARK   98  A    between atoms: _243  and  _244
REMARK   99  A    between atoms: _249  and  _251
REMARK  100  A    between atoms: _251  and  _252
REMARK  101  A    between atoms: _251  and  _254
REMARK  102  A    between atoms: _254  and  _255
REMARK  103  A    between atoms: _255  and  _256
REMARK  104  A    between atoms: _256  and  _257
REMARK  105  A    between atoms: _266  and  _268
REMARK  106  A    between atoms: _268  and  _269
REMARK  107  A    between atoms: _268  and  _271
REMARK  108  A    between atoms: _271  and  _272
REMARK  109  A    between atoms: _275  and  _277
REMARK  110  A    between atoms: _277  and  _278
REMARK  111  A    between atoms: _277  and  _280
REMARK  112  A    between atoms: _280  and  _281
REMARK  113  A    between atoms: _284  and  _286
REMARK  114  A    between atoms: _286  and  _287
REMARK  115  A    between atoms: _286  and  _289
REMARK  116  A    between atoms: _289  and  _290
REMARK  117  A    between atoms: _293  and  _295
REMARK  118  A    between atoms: _295  and  _296
REMARK  119  A    between atoms: _295  and  _298
REMARK  120  A    between atoms: _298  and  _299
REMARK  121  A    between atoms: _302  and  _304
REMARK  122  A    between atoms: _304  and  _305
REMARK  123  A    between atoms: _307  and  _309
REMARK  124  A    between atoms: _309  and  _310
REMARK  125  A    between atoms: _313  and  _315
REMARK  126  A    between atoms: _315  and  _316
REMARK  127  A    between atoms: _315  and  _318
REMARK  128  A    between atoms: _318  and  _319
REMARK  129  A    between atoms: _322  and  _324
REMARK  130  A    between atoms: _324  and  _325
REMARK  131  A    between atoms: _324  and  _327
REMARK  132  A    between atoms: _327  and  _328
REMARK  133  A    between atoms: _331  and  _333
REMARK  134  A    between atoms: _333  and  _334
REMARK  135  A    between atoms: _333  and  _336
REMARK  136  A    between atoms: _336  and  _337
REMARK  137  A    between atoms: _340  and  _342
REMARK  138  A    between atoms: _342  and  _343
REMARK  139  A    between atoms: _342  and  _345
REMARK  140  A    between atoms: _348  and  _350
REMARK  141  A    between atoms: _350  and  _351
REMARK  142  A    between atoms: _350  and  _353
REMARK  143  A    between atoms: _353  and  _354
REMARK  144  A    between atoms: _357  and  _359
REMARK  145  A    between atoms: _359  and  _360
REMARK  146  A    between atoms: _359  and  _362
REMARK  147  A    between atoms: _362  and  _363
REMARK  148  A    between atoms: _363  and  _364
REMARK  149  A    between atoms: _364  and  _365
REMARK  150  A    between atoms: _365  and  _366
REMARK  151  A    between atoms: _370  and  _372
REMARK  152  A    between atoms: _372  and  _373
REMARK  153  A    between atoms: _372  and  _375
REMARK  154  A    between atoms: _375  and  _376
REMARK  155  A    between atoms: _376  and  _377
REMARK  156  A    between atoms: _379  and  _381
REMARK  157  A    between atoms: _381  and  _382
REMARK  158  A    between atoms: _381  and  _384
REMARK  159  A    between atoms: _384  and  _385
REMARK  160  A    between atoms: _388  and  _390
REMARK  161  A    between atoms: _390  and  _391
REMARK  162  A    between atoms: _393  and  _395
REMARK  163  A    between atoms: _395  and  _396
REMARK  164  A    between atoms: _398  and  _400
REMARK  165  A    between atoms: _400  and  _401
REMARK  166  A    between atoms: _400  and  _403
REMARK  167  A    between atoms: _403  and  _404
REMARK  168  A    between atoms: _407  and  _409
REMARK  169  A    between atoms: _409  and  _410
REMARK  170  A    between atoms: _412  and  _414
REMARK  171  A    between atoms: _414  and  _415
REMARK  172  A    between atoms: _417  and  _419
REMARK  173  A    between atoms: _419  and  _420
REMARK  174  A    between atoms: _419  and  _422
REMARK  175  A    between atoms: _422  and  _423
REMARK  176  A    between atoms: _429  and  _431
REMARK  177  A    between atoms: _431  and  _432
REMARK  178  A    between atoms: _431  and  _434
REMARK  179  A    between atoms: _434  and  _435
REMARK  180  A    between atoms: _438  and  _440
REMARK  181  A    between atoms: _440  and  _441
REMARK  182  A    between atoms: _440  and  _443
REMARK  183  A    between atoms: _446  and  _448
REMARK  184  A    between atoms: _448  and  _449
REMARK  185  A    between atoms: _448  and  _451
REMARK  186  A    between atoms: _451  and  _452
REMARK  187  A    between atoms: _455  and  _457
REMARK  188  A    between atoms: _457  and  _458
REMARK  189  A    between atoms: _457  and  _460
REMARK  190  A    between atoms: _460  and  _461
REMARK  191  A    between atoms: _465  and  _466
REMARK  192  A    between atoms: _471  and  _473
REMARK  193  A    between atoms: _473  and  _474
REMARK  194  A    between atoms: _473  and  _476
REMARK  195  A    between atoms: _479  and  _481
REMARK  196  A    between atoms: _481  and  _482
REMARK  197  A    between atoms: _481  and  _484
REMARK  198  A    between atoms: _484  and  _485
REMARK  199  A    between atoms: _490  and  _492
REMARK  200  A    between atoms: _492  and  _493
REMARK  201  A    between atoms: _492  and  _495
REMARK  202  A    between atoms: _495  and  _496
REMARK  203  A    between atoms: _499  and  _501
REMARK  204  A    between atoms: _501  and  _502
REMARK  205  A    between atoms: _501  and  _504
REMARK  206  A    between atoms: _504  and  _505
REMARK  207  A    between atoms: _508  and  _510
REMARK  208  A    between atoms: _510  and  _511
REMARK  209  A    between atoms: _513  and  _515
REMARK  210  A    between atoms: _515  and  _516
REMARK  211  A    between atoms: _515  and  _518
REMARK  212  A    between atoms: _518  and  _519
REMARK  213  A    between atoms: _519  and  _520
REMARK  214  A    between atoms: _520  and  _521
REMARK  215  A    between atoms: _530  and  _532
REMARK  216  A    between atoms: _532  and  _533
REMARK  217  A    between atoms: _532  and  _535
REMARK  218  A    between atoms: _535  and  _536
REMARK                            x       y       z     vdW  Elec       q    Type
REMARK                         _______ _______ _______ _____ _____    ______ ____
ROOT
ATOM      1  CA  ILE A   6      27.975  29.958  18.184  0.00  0.00    +0.149 C 
ENDROOT
BRANCH   1   2
ATOM      2  C   ILE A   6      28.688  28.615  18.184  0.00  0.00    +0.241 C 
ATOM      3  N   ILE A   7      28.447  27.853  19.250  0.00  0.00    -0.297 N 
ATOM      4  H   ILE A   7      27.929  28.265  20.052  0.00  0.00    +0.150 HD
ATOM      5  O   ILE A   6      29.440  28.278  17.251  0.00  0.00    -0.273 OA
BRANCH   3   6
ATOM      6  CA  ILE A   7      28.879  26.472  19.334  0.00  0.00    +0.149 C 
BRANCH   6   7
ATOM      7  C   ILE A   7      27.683  25.603  18.953  0.00  0.00    +0.241 C 
ATOM      8  O   ILE A   7      26.659  25.617  19.614  0.00  0.00    -0.273 OA
ATOM      9  N   GLY A   8      27.816  24.889  17.847  0.00  0.00    -0.295 N 
ATOM     10  H   GLY A   8      28.707  24.958  17.315  0.00  0.00    +0.150 HD
BRANCH   9  11
ATOM     11  CA  GLY A   8      26.765  24.008  17.341  0.00  0.00    +0.176 C 
BRANCH  11  12
ATOM     12  C   GLY A   8      26.931  22.568  17.718  0.00  0.00    +0.243 C 
ATOM     13  O   GLY A   8      27.869  22.189  18.414  0.00  0.00    -0.273 OA
ATOM     14  N   ARG A   9      26.001  21.749  17.244  0.00  0.00    -0.297 N 
ATOM     15  H   ARG A   9      25.328  22.091  16.529  0.00  0.00    +0.150 HD
BRANCH  14  16
ATOM     16  CA  ARG A   9      25.915  20.376  17.717  0.00  0.00    +0.149 C 
BRANCH  16  17
ATOM     17  C   ARG A   9      27.156  19.542  17.410  0.00  0.00    +0.241 C 
ATOM     18  O   ARG A   9      27.442  18.590  18.132  0.00  0.00    -0.273 OA
ATOM     19  N   ASN A  10      27.873  19.873  16.346  0.00  0.00    -0.298 N 
ATOM     20  H   ASN A  10      27.570  20.660  15.737  0.00  0.00    +0.150 HD
BRANCH  19  21
ATOM     21  CA  ASN A  10      29.089  19.130  16.032  0.00  0.00    +0.146 C 
BRANCH  21  22
ATOM     22  C   ASN A  10      30.074  19.129  17.191  0.00  0.00    +0.227 C 
ATOM     23  O   ASN A  10      30.749  18.125  17.411  0.00  0.00    -0.286 OA
ENDBRANCH  21  22
BRANCH  21  24
ATOM     24  CB  ASN A  10      29.747  19.621  14.744  0.00  0.00    +0.112 C 
BRANCH  24  25
ATOM     25  CG  ASN A  10      30.425  20.957  14.893  0.00  0.00    +0.222 C 
ATOM     26  OD1 ASN A  10      29.814  21.930  15.345  0.00  0.00    -0.275 OA
ATOM     27  ND2 ASN A  10      31.699  21.017  14.494  0.00  0.00    -0.329 N 
ATOM     28 HD21 ASN A  10      32.222  21.914  14.557  0.00  0.00    +0.145 HD
ATOM     29 HD22 ASN A  10      32.167  20.167  14.120  0.00  0.00    +0.145 HD
ENDBRANCH  24  25
ENDBRANCH  21  24
ENDBRANCH  19  21
ENDBRANCH  16  17
BRANCH  16  30
ATOM     30  CB  ARG A   9      24.669  19.673  17.173  0.00  0.00    +0.033 C 
BRANCH  30  31
ATOM     31  CG  ARG A   9      23.366  20.283  17.666  0.00  0.00    +0.045 C 
BRANCH  31  32
ATOM     32  CD  ARG A   9      22.136  19.493  17.221  0.00  0.00    +0.174 C 
BRANCH  32  33
ATOM     33  NE  ARG A   9      21.989  19.455  15.767  0.00  0.00    -0.265 N 
ATOM     34  HE  ARG A   9      21.537  20.276  15.316  0.00  0.00    +0.259 HD
ATOM     35  CZ  ARG A   9      22.380  18.468  14.970  0.00  0.00    +0.342 C 
ATOM     36  NH2 ARG A   9      22.917  17.341  15.420  0.00  0.00    -0.292 N 
ATOM     37 HH21 ARG A   9      23.049  17.199  16.442  0.00  0.00    +0.255 HD
ATOM     38 HH22 ARG A   9      23.206  16.599  14.751  0.00  0.00    +0.255 HD
ATOM     39  NH1 ARG A   9      22.236  18.633  13.671  0.00  0.00    -0.292 N 
ATOM     40 HH11 ARG A   9      21.827  19.515  13.301  0.00  0.00    +0.255 HD
ATOM     41 HH12 ARG A   9      22.531  17.881  13.015  0.00  0.00    +0.255 HD
ENDBRANCH  32  33
ENDBRANCH  31  32
ENDBRANCH  30  31
ENDBRANCH  16  30
ENDBRANCH  14  16
ENDBRANCH  11  12
ENDBRANCH   9  11
ENDBRANCH   6   7
BRANCH   6  42
ATOM     42  CB  ILE A   7      29.356  26.111  20.752  0.00  0.00    +0.027 C 
ATOM     43  CG2 ILE A   7      29.833  24.656  20.766  0.00  0.00    +0.002 C 
BRANCH  42  44
ATOM     44  CG1 ILE A   7      30.440  27.069  21.288  0.00  0.00    +0.002 C 
ATOM     45  CD1 ILE A   7      31.669  27.210  20.400  0.00  0.00    +0.000 C 
ENDBRANCH  42  44
ENDBRANCH   6  42
ENDBRANCH   3   6
ENDBRANCH   1   2
BRANCH   1  48
ATOM     46  C   ASN A   5      29.024  32.145  18.470  0.00  0.00    +0.241 C 
ATOM     47  O   ASN A   5      28.432  32.349  19.521  0.00  0.00    -0.273 OA
ATOM     48  N   ILE A   6      28.872  31.032  17.764  0.00  0.00    -0.297 N 
ATOM     49  H   ILE A   6      29.410  30.920  16.881  0.00  0.00    +0.150 HD
BRANCH  46  50
ATOM     50  CA  ASN A   5      29.980  33.187  17.932  0.00  0.00    +0.158 C 
BRANCH  50  52
ATOM     51  C   VAL A   4      28.219  34.666  17.138  0.00  0.00    +0.241 C 
ATOM     52  N   ASN A   5      29.298  34.480  17.876  0.00  0.00    -0.297 N 
ATOM     53  H   ASN A   5      29.673  35.274  18.433  0.00  0.00    +0.150 HD
ATOM     54  O   VAL A   4      27.811  33.808  16.363  0.00  0.00    -0.273 OA
BRANCH  51  55
ATOM     55  CA  VAL A   4      27.491  35.995  17.311  0.00  0.00    +0.149 C 
BRANCH  55  58
ATOM     56  C   PRO A   3      26.546  37.548  15.660  0.00  0.00    +0.245 C 
ATOM     57  O   PRO A   3      26.790  38.537  16.354  0.00  0.00    -0.273 OA
ATOM     58  N   VAL A   4      26.809  36.302  16.059  0.00  0.00    -0.297 N 
ATOM     59  H   VAL A   4      26.514  35.513  15.449  0.00  0.00    +0.150 HD
BRANCH  56  62
ATOM     60  C   THR A   2      27.331  36.333  12.905  0.00  0.00    +0.247 C 
ATOM     61  N   PRO A   3      26.080  36.581  13.347  0.00  0.00    -0.264 N 
ATOM     62  CA  PRO A   3      25.841  37.687  14.302  0.00  0.00    +0.175 C 
ATOM     63  CB  PRO A   3      24.324  37.675  14.525  0.00  0.00    -0.000 C 
ATOM     64  CG  PRO A   3      23.778  36.552  13.767  0.00  0.00    -0.007 C 
ATOM     65  CD  PRO A   3      24.844  35.880  12.971  0.00  0.00    +0.120 C 
ATOM     66  O   THR A   2      28.294  37.042  13.249  0.00  0.00    -0.273 OA
BRANCH  60  67
ATOM     67  CA  THR A   2      27.554  35.131  11.982  0.00  0.00    +0.176 C 
BRANCH  67  69
ATOM     68  C   PRO A   1      28.393  36.232   9.985  0.00  0.00    +0.239 C 
ATOM     69  N   THR A   2      28.619  35.464  11.039  0.00  0.00    -0.295 N 
ATOM     70  H   THR A   2      29.576  35.089  11.199  0.00  0.00    +0.150 HD
ATOM     71  O   PRO A   1      27.269  36.549   9.639  0.00  0.00    -0.274 OA
BRANCH  68  73
ATOM     72  N   PRO A   1      30.466  35.680   8.656  0.00  0.00    -0.210 NA
ATOM     73  CA  PRO A   1      29.618  36.726   9.227  0.00  0.00    +0.149 C 
ATOM     74  CB  PRO A   1      29.250  37.570   8.006  0.00  0.00    +0.028 C 
ATOM     75  CG  PRO A   1      29.221  36.567   6.875  0.00  0.00    +0.021 C 
ATOM     76  CD  PRO A   1      30.370  35.641   7.178  0.00  0.00    +0.089 C 
ENDBRANCH  68  73
ENDBRANCH  67  69
BRANCH  67  77
ATOM     77  CB  THR A   2      27.915  33.898  12.816  0.00  0.00    +0.137 C 
ATOM     78  CG2 THR A   2      29.264  34.081  13.523  0.00  0.00    +0.034 C 
BRANCH  77  79
ATOM     79  OG1 THR A   2      26.893  33.659  13.789  0.00  0.00    -0.382 OA
ATOM     80  HG1 THR A   2      26.814  34.447  14.383  0.00  0.00    +0.210 HD
ENDBRANCH  77  79
ENDBRANCH  67  77
ENDBRANCH  60  67
ENDBRANCH  56  62
ENDBRANCH  55  58
BRANCH  55  81
ATOM     81  CB  VAL A   4      26.509  35.921  18.511  0.00  0.00    +0.027 C 
ATOM     82  CG2 VAL A   4      27.245  35.772  19.830  0.00  0.00    +0.002 C 
ATOM     83  CG1 VAL A   4      25.497  34.798  18.347  0.00  0.00    +0.002 C 
ENDBRANCH  55  81
ENDBRANCH  51  55
ENDBRANCH  50  52
BRANCH  50  84
ATOM     84  CB  ASN A   5      31.174  33.224  18.886  0.00  0.00    +0.114 C 
BRANCH  84  85
ATOM     85  CG  ASN A   5      32.296  34.137  18.441  0.00  0.00    +0.222 C 
ATOM     86  ND2 ASN A   5      32.943  34.758  19.416  0.00  0.00    -0.329 N 
ATOM     87 HD21 ASN A   5      32.673  34.593  20.407  0.00  0.00    +0.145 HD
ATOM     88 HD22 ASN A   5      33.721  35.410  19.191  0.00  0.00    +0.145 HD
ATOM     89  OD1 ASN A   5      32.572  34.294  17.255  0.00  0.00    -0.275 OA
ENDBRANCH  84  85
ENDBRANCH  50  84
ENDBRANCH  46  50
ENDBRANCH   1  48
BRANCH   1  90
ATOM     90  CB  ILE A   6      26.693  29.841  17.336  0.00  0.00    +0.027 C 
ATOM     91  CG2 ILE A   6      25.844  31.088  17.533  0.00  0.00    +0.002 C 
BRANCH  90  92
ATOM     92  CG1 ILE A   6      27.001  29.539  15.859  0.00  0.00    +0.002 C 
ATOM     93  CD1 ILE A   6      25.778  29.320  14.977  0.00  0.00    +0.000 C 
ENDBRANCH  90  92
ENDBRANCH   1  90
TORSDOF 33
REMARK  Name = ../refined-set-2016/3o9e/3o9e_pocket.pdb
REMARK  218 active torsions:
REMARK  status: ('A' for Active; 'I' for Inactive)
REMARK    1  A    between atoms: _1  and  _3
REMARK    2  A    between atoms: _3  and  _4
REMARK    3  A    between atoms: _3  and  _6
REMARK    4  A    between atoms: _6  and  _7
REMARK    5  A    between atoms: _7  and  _8
REMARK    6  A    between atoms: _8  and  _9
REMARK    7  A    between atoms: _18  and  _20
REMARK    8  A    between atoms: _20  and  _21
REMARK    9  A    between atoms: _20  and  _23
REMARK   10  A    between atoms: _23  and  _24
REMARK   11  A    between atoms: _27  and  _29
REMARK   12  A    between atoms: _29  and  _30
REMARK   13  A    between atoms: _29  and  _32
REMARK   14  A    between atoms: _32  and  _33
REMARK   15  A    between atoms: _36  and  _38
REMARK   16  A    between atoms: _38  and  _39
REMARK   17  A    between atoms: _38  and  _41
REMARK   18  A    between atoms: _41  and  _42
REMARK   19  A    between atoms: _45  and  _47
REMARK   20  A    between atoms: _47  and  _48
REMARK   21  A    between atoms: _47  and  _50
REMARK   22  A    between atoms: _50  and  _51
REMARK   23  A    between atoms: _54  and  _56
REMARK   24  A    between atoms: _56  and  _57
REMARK   25  A    between atoms: _59  and  _61
REMARK   26  A    between atoms: _61  and  _62
REMARK   27  A    between atoms: _65  and  _67
REMARK   28  A    between atoms: _67  and  _68
REMARK   29  A    between atoms: _67  and  _70
REMARK   30  A    between atoms: _70  and  _71
REMARK   31  A    between atoms: _74  and  _76
REMARK   32  A    between atoms: _76  and  _77
REMARK   33  A    between atoms: _76  and  _79
REMARK   34  A    between atoms: _79  and  _80
REMARK   35  A    between atoms: _83  and  _85
REMARK   36  A    between atoms: _85  and  _86
REMARK   37  A    between atoms: _85  and  _88
REMARK   38  A    between atoms: _88  and  _89
REMARK   39  A    between atoms: _92  and  _94
REMARK   40  A    between atoms: _94  and  _95
REMARK   41  A    between atoms: _94  and  _97
REMARK   42  A    between atoms: _100  and  _102
REMARK   43  A    between atoms: _102  and  _103
REMARK   44  A    between atoms: _102  and  _105
REMARK   45  A    between atoms: _105  and  _106
REMARK   46  A    between atoms: _109  and  _111
REMARK   47  A    between atoms: _111  and  _112
REMARK   48  A    between atoms: _114  and  _116
REMARK   49  A    between atoms: _116  and  _117
REMARK   50  A    between atoms: _119  and  _121
REMARK   51  A    between atoms: _121  and  _122
REMARK   52  A    between atoms: _121  and  _124
REMARK   53  A    between atoms: _124  and  _125
REMARK   54  A    between atoms: _128  and  _130
REMARK   55  A    between atoms: _130  and  _131
REMARK   56  A    between atoms: _133  and  _135
REMARK   57  A    between atoms: _135  and  _136
REMARK   58  A    between atoms: _138  and  _140
REMARK   59  A    between atoms: _140  and  _141
REMARK   60  A    between atoms: _140  and  _143
REMARK   61  A    between atoms: _143  and  _144
REMARK   62  A    between atoms: _147  and  _149
REMARK   63  A    between atoms: _149  and  _150
REMARK   64  A    between atoms: _149  and  _152
REMARK   65  A    between atoms: _152  and  _153
REMARK   66  A    between atoms: _157  and  _158
REMARK   67  A    between atoms: _163  and  _165
REMARK   68  A    between atoms: _165  and  _166
REMARK   69  A    between atoms: _165  and  _168
REMARK   70  A    between atoms: _168  and  _169
REMARK   71  A    between atoms: _173  and  _174
REMARK   72  A    between atoms: _179  and  _181
REMARK   73  A    between atoms: _181  and  _182
REMARK   74  A    between atoms: _181  and  _184
REMARK   75  A    between atoms: _187  and  _189
REMARK   76  A    between atoms: _189  and  _190
REMARK   77  A    between atoms: _189  and  _192
REMARK   78  A    between atoms: _192  and  _193
REMARK   79  A    between atoms: _198  and  _200
REMARK   80  A    between atoms: _200  and  _201
REMARK   81  A    between atoms: _200  and  _203
REMARK   82  A    between atoms: _203  and  _204
REMARK   83  A    between atoms: _207  and  _209
REMARK   84  A    between atoms: _209  and  _210
REMARK   85  A    between atoms: _209  and  _212
REMARK   86  A    between atoms: _212  and  _213
REMARK   87  A    between atoms: _216  and  _218
REMARK   88  A    between atoms: _218  and  _219
REMARK   89  A    between atoms: _221  and  _223
REMARK   90  A    between atoms: _223  and  _224
REMARK   91  A    between atoms: _223  and  _226
REMARK   92  A    between atoms: _226  and  _227
REMARK   93  A    between atoms: _227  and  _228
REMARK   94  A    between atoms: _228  and  _229
REMARK   95  A    between atoms: _238  and  _240
REMARK   96  A    between atoms: _240  and  _241
REMARK   97  A    between atoms: _240  and  _243
REMARK   98  A    between atoms: _243  and  _244
REMARK   99  A    between atoms: _249  and  _251
REMARK  100  A    between atoms: _251  and  _252
REMARK  101  A    between atoms: _251  and  _254
REMARK  102  A    between atoms: _254  and  _255
REMARK  103  A    between atoms: _255  and  _256
REMARK  104  A    between atoms: _256  and  _257
REMARK  105  A    between atoms: _266  and  _268
REMARK  106  A    between atoms: _268  and  _269
REMARK  107  A    between atoms: _268  and  _271
REMARK  108  A    between atoms: _271  and  _272
REMARK  109  A    between atoms: _275  and  _277
REMARK  110  A    between atoms: _277  and  _278
REMARK  111  A    between atoms: _277  and  _280
REMARK  112  A    between atoms: _280  and  _281
REMARK  113  A    between atoms: _284  and  _286
REMARK  114  A    between atoms: _286  and  _287
REMARK  115  A    between atoms: _286  and  _289
REMARK  116  A    between atoms: _289  and  _290
REMARK  117  A    between atoms: _293  and  _295
REMARK  118  A    between atoms: _295  and  _296
REMARK  119  A    between atoms: _295  and  _298
REMARK  120  A    between atoms: _298  and  _299
REMARK  121  A    between atoms: _302  and  _304
REMARK  122  A    between atoms: _304  and  _305
REMARK  123  A    between atoms: _307  and  _309
REMARK  124  A    between atoms: _309  and  _310
REMARK  125  A    between atoms: _313  and  _315
REMARK  126  A    between atoms: _315  and  _316
REMARK  127  A    between atoms: _315  and  _318
REMARK  128  A    between atoms: _318  and  _319
REMARK  129  A    between atoms: _322  and  _324
REMARK  130  A    between atoms: _324  and  _325
REMARK  131  A    between atoms: _324  and  _327
REMARK  132  A    between atoms: _327  and  _328
REMARK  133  A    between atoms: _331  and  _333
REMARK  134  A    between atoms: _333  and  _334
REMARK  135  A    between atoms: _333  and  _336
REMARK  136  A    between atoms: _336  and  _337
REMARK  137  A    between atoms: _340  and  _342
REMARK  138  A    between atoms: _342  and  _343
REMARK  139  A    between atoms: _342  and  _345
REMARK  140  A    between atoms: _348  and  _350
REMARK  141  A    between atoms: _350  and  _351
REMARK  142  A    between atoms: _350  and  _353
REMARK  143  A    between atoms: _353  and  _354
REMARK  144  A    between atoms: _357  and  _359
REMARK  145  A    between atoms: _359  and  _360
REMARK  146  A    between atoms: _359  and  _362
REMARK  147  A    between atoms: _362  and  _363
REMARK  148  A    between atoms: _363  and  _364
REMARK  149  A    between atoms: _364  and  _365
REMARK  150  A    between atoms: _365  and  _366
REMARK  151  A    between atoms: _370  and  _372
REMARK  152  A    between atoms: _372  and  _373
REMARK  153  A    between atoms: _372  and  _375
REMARK  154  A    between atoms: _375  and  _376
REMARK  155  A    between atoms: _376  and  _377
REMARK  156  A    between atoms: _379  and  _381
REMARK  157  A    between atoms: _381  and  _382
REMARK  158  A    between atoms: _381  and  _384
REMARK  159  A    between atoms: _384  and  _385
REMARK  160  A    between atoms: _388  and  _390
REMARK  161  A    between atoms: _390  and  _391
REMARK  162  A    between atoms: _393  and  _395
REMARK  163  A    between atoms: _395  and  _396
REMARK  164  A    between atoms: _398  and  _400
REMARK  165  A    between atoms: _400  and  _401
REMARK  166  A    between atoms: _400  and  _403
REMARK  167  A    between atoms: _403  and  _404
REMARK  168  A    between atoms: _407  and  _409
REMARK  169  A    between atoms: _409  and  _410
REMARK  170  A    between atoms: _412  and  _414
REMARK  171  A    between atoms: _414  and  _415
REMARK  172  A    between atoms: _417  and  _419
REMARK  173  A    between atoms: _419  and  _420
REMARK  174  A    between atoms: _419  and  _422
REMARK  175  A    between atoms: _422  and  _423
REMARK  176  A    between atoms: _429  and  _431
REMARK  177  A    between atoms: _431  and  _432
REMARK  178  A    between atoms: _431  and  _434
REMARK  179  A    between atoms: _434  and  _435
REMARK  180  A    between atoms: _438  and  _440
REMARK  181  A    between atoms: _440  and  _441
REMARK  182  A    between atoms: _440  and  _443
REMARK  183  A    between atoms: _446  and  _448
REMARK  184  A    between atoms: _448  and  _449
REMARK  185  A    between atoms: _448  and  _451
REMARK  186  A    between atoms: _451  and  _452
REMARK  187  A    between atoms: _455  and  _457
REMARK  188  A    between atoms: _457  and  _458
REMARK  189  A    between atoms: _457  and  _460
REMARK  190  A    between atoms: _460  and  _461
REMARK  191  A    between atoms: _465  and  _466
REMARK  192  A    between atoms: _471  and  _473
REMARK  193  A    between atoms: _473  and  _474
REMARK  194  A    between atoms: _473  and  _476
REMARK  195  A    between atoms: _479  and  _481
REMARK  196  A    between atoms: _481  and  _482
REMARK  197  A    between atoms: _481  and  _484
REMARK  198  A    between atoms: _484  and  _485
REMARK  199  A    between atoms: _490  and  _492
REMARK  200  A    between atoms: _492  and  _493
REMARK  201  A    between atoms: _492  and  _495
REMARK  202  A    between atoms: _495  and  _496
REMARK  203  A    between atoms: _499  and  _501
REMARK  204  A    between atoms: _501  and  _502
REMARK  205  A    between atoms: _501  and  _504
REMARK  206  A    between atoms: _504  and  _505
REMARK  207  A    between atoms: _508  and  _510
REMARK  208  A    between atoms: _510  and  _511
REMARK  209  A    between atoms: _513  and  _515
REMARK  210  A    between atoms: _515  and  _516
REMARK  211  A    between atoms: _515  and  _518
REMARK  212  A    between atoms: _518  and  _519
REMARK  213  A    between atoms: _519  and  _520
REMARK  214  A    between atoms: _520  and  _521
REMARK  215  A    between atoms: _530  and  _532
REMARK  216  A    between atoms: _532  and  _533
REMARK  217  A    between atoms: _532  and  _535
REMARK  218  A    between atoms: _535  and  _536
REMARK                            x       y       z     vdW  Elec       q    Type
REMARK                         _______ _______ _______ _____ _____    ______ ____
ROOT
ATOM      1  NE  ARG A   1      18.939  20.599  11.231  0.00  0.00    -0.265 N 
ATOM      2  HE  ARG A   1      19.914  20.241  11.171  0.00  0.00    +0.259 HD
ATOM      3  CZ  ARG A   1      18.591  21.597  10.418  0.00  0.00    +0.342 C 
ATOM      4  NH2 ARG A   1      17.374  22.131  10.475  0.00  0.00    -0.292 N 
ATOM      5 HH21 ARG A   1      16.680  21.771  11.160  0.00  0.00    +0.255 HD
ATOM      6 HH22 ARG A   1      17.117  22.909   9.834  0.00  0.00    +0.255 HD
ATOM      7  NH1 ARG A   1      19.476  22.099   9.566  0.00  0.00    -0.292 N 
ATOM      8 HH11 ARG A   1      20.442  21.714   9.532  0.00  0.00    +0.255 HD
ATOM      9 HH12 ARG A   1      19.204  22.877   8.932  0.00  0.00    +0.255 HD
ENDROOT
BRANCH   1  10
ATOM     10  CD  ARG A   1      18.041  19.973  12.203  0.00  0.00    +0.174 C 
BRANCH  10  11
ATOM     11  CG  ARG A   1      18.775  19.178  13.279  0.00  0.00    +0.045 C 
BRANCH  11  12
ATOM     12  CB  ARG A   1      17.821  18.661  14.337  0.00  0.00    +0.029 C 
BRANCH  12  13
ATOM     13  CA  ARG A   1      18.521  18.007  15.523  0.00  0.00    +0.133 C 
BRANCH  13  14
ATOM     14  N   ARG A   1      19.234  16.794  15.127  0.00  0.00    -0.239 NA
ATOM     15  H   ARG A   1      19.186  16.461  14.143  0.00  0.00    +0.142 HD
ENDBRANCH  13  14
BRANCH  13  16
ATOM     16  C   ARG A   1      17.501  17.678  16.604  0.00  0.00    +0.224 C 
ATOM     17  O   ARG A   1      16.790  16.672  16.490  0.00  0.00    -0.287 OA
ENDBRANCH  13  16
ENDBRANCH  12  13
ENDBRANCH  11  12
ENDBRANCH  10  11
ENDBRANCH   1  10
TORSDOF 6
REMARK  Name = ../refined-set-2016/3o9e/3o9e_pocket.pdb
REMARK  218 active torsions:
REMARK  status: ('A' for Active; 'I' for Inactive)
REMARK    1  A    between atoms: _1  and  _3
REMARK    2  A    between atoms: _3  and  _4
REMARK    3  A    between atoms: _3  and  _6
REMARK    4  A    between atoms: _6  and  _7
REMARK    5  A    between atoms: _7  and  _8
REMARK    6  A    between atoms: _8  and  _9
REMARK    7  A    between atoms: _18  and  _20
REMARK    8  A    between atoms: _20  and  _21
REMARK    9  A    between atoms: _20  and  _23
REMARK   10  A    between atoms: _23  and  _24
REMARK   11  A    between atoms: _27  and  _29
REMARK   12  A    between atoms: _29  and  _30
REMARK   13  A    between atoms: _29  and  _32
REMARK   14  A    between atoms: _32  and  _33
REMARK   15  A    between atoms: _36  and  _38
REMARK   16  A    between atoms: _38  and  _39
REMARK   17  A    between atoms: _38  and  _41
REMARK   18  A    between atoms: _41  and  _42
REMARK   19  A    between atoms: _45  and  _47
REMARK   20  A    between atoms: _47  and  _48
REMARK   21  A    between atoms: _47  and  _50
REMARK   22  A    between atoms: _50  and  _51
REMARK   23  A    between atoms: _54  and  _56
REMARK   24  A    between atoms: _56  and  _57
REMARK   25  A    between atoms: _59  and  _61
REMARK   26  A    between atoms: _61  and  _62
REMARK   27  A    between atoms: _65  and  _67
REMARK   28  A    between atoms: _67  and  _68
REMARK   29  A    between atoms: _67  and  _70
REMARK   30  A    between atoms: _70  and  _71
REMARK   31  A    between atoms: _74  and  _76
REMARK   32  A    between atoms: _76  and  _77
REMARK   33  A    between atoms: _76  and  _79
REMARK   34  A    between atoms: _79  and  _80
REMARK   35  A    between atoms: _83  and  _85
REMARK   36  A    between atoms: _85  and  _86
REMARK   37  A    between atoms: _85  and  _88
REMARK   38  A    between atoms: _88  and  _89
REMARK   39  A    between atoms: _92  and  _94
REMARK   40  A    between atoms: _94  and  _95
REMARK   41  A    between atoms: _94  and  _97
REMARK   42  A    between atoms: _100  and  _102
REMARK   43  A    between atoms: _102  and  _103
REMARK   44  A    between atoms: _102  and  _105
REMARK   45  A    between atoms: _105  and  _106
REMARK   46  A    between atoms: _109  and  _111
REMARK   47  A    between atoms: _111  and  _112
REMARK   48  A    between atoms: _114  and  _116
REMARK   49  A    between atoms: _116  and  _117
REMARK   50  A    between atoms: _119  and  _121
REMARK   51  A    between atoms: _121  and  _122
REMARK   52  A    between atoms: _121  and  _124
REMARK   53  A    between atoms: _124  and  _125
REMARK   54  A    between atoms: _128  and  _130
REMARK   55  A    between atoms: _130  and  _131
REMARK   56  A    between atoms: _133  and  _135
REMARK   57  A    between atoms: _135  and  _136
REMARK   58  A    between atoms: _138  and  _140
REMARK   59  A    between atoms: _140  and  _141
REMARK   60  A    between atoms: _140  and  _143
REMARK   61  A    between atoms: _143  and  _144
REMARK   62  A    between atoms: _147  and  _149
REMARK   63  A    between atoms: _149  and  _150
REMARK   64  A    between atoms: _149  and  _152
REMARK   65  A    between atoms: _152  and  _153
REMARK   66  A    between atoms: _157  and  _158
REMARK   67  A    between atoms: _163  and  _165
REMARK   68  A    between atoms: _165  and  _166
REMARK   69  A    between atoms: _165  and  _168
REMARK   70  A    between atoms: _168  and  _169
REMARK   71  A    between atoms: _173  and  _174
REMARK   72  A    between atoms: _179  and  _181
REMARK   73  A    between atoms: _181  and  _182
REMARK   74  A    between atoms: _181  and  _184
REMARK   75  A    between atoms: _187  and  _189
REMARK   76  A    between atoms: _189  and  _190
REMARK   77  A    between atoms: _189  and  _192
REMARK   78  A    between atoms: _192  and  _193
REMARK   79  A    between atoms: _198  and  _200
REMARK   80  A    between atoms: _200  and  _201
REMARK   81  A    between atoms: _200  and  _203
REMARK   82  A    between atoms: _203  and  _204
REMARK   83  A    between atoms: _207  and  _209
REMARK   84  A    between atoms: _209  and  _210
REMARK   85  A    between atoms: _209  and  _212
REMARK   86  A    between atoms: _212  and  _213
REMARK   87  A    between atoms: _216  and  _218
REMARK   88  A    between atoms: _218  and  _219
REMARK   89  A    between atoms: _221  and  _223
REMARK   90  A    between atoms: _223  and  _224
REMARK   91  A    between atoms: _223  and  _226
REMARK   92  A    between atoms: _226  and  _227
REMARK   93  A    between atoms: _227  and  _228
REMARK   94  A    between atoms: _228  and  _229
REMARK   95  A    between atoms: _238  and  _240
REMARK   96  A    between atoms: _240  and  _241
REMARK   97  A    between atoms: _240  and  _243
REMARK   98  A    between atoms: _243  and  _244
REMARK   99  A    between atoms: _249  and  _251
REMARK  100  A    between atoms: _251  and  _252
REMARK  101  A    between atoms: _251  and  _254
REMARK  102  A    between atoms: _254  and  _255
REMARK  103  A    between atoms: _255  and  _256
REMARK  104  A    between atoms: _256  and  _257
REMARK  105  A    between atoms: _266  and  _268
REMARK  106  A    between atoms: _268  and  _269
REMARK  107  A    between atoms: _268  and  _271
REMARK  108  A    between atoms: _271  and  _272
REMARK  109  A    between atoms: _275  and  _277
REMARK  110  A    between atoms: _277  and  _278
REMARK  111  A    between atoms: _277  and  _280
REMARK  112  A    between atoms: _280  and  _281
REMARK  113  A    between atoms: _284  and  _286
REMARK  114  A    between atoms: _286  and  _287
REMARK  115  A    between atoms: _286  and  _289
REMARK  116  A    between atoms: _289  and  _290
REMARK  117  A    between atoms: _293  and  _295
REMARK  118  A    between atoms: _295  and  _296
REMARK  119  A    between atoms: _295  and  _298
REMARK  120  A    between atoms: _298  and  _299
REMARK  121  A    between atoms: _302  and  _304
REMARK  122  A    between atoms: _304  and  _305
REMARK  123  A    between atoms: _307  and  _309
REMARK  124  A    between atoms: _309  and  _310
REMARK  125  A    between atoms: _313  and  _315
REMARK  126  A    between atoms: _315  and  _316
REMARK  127  A    between atoms: _315  and  _318
REMARK  128  A    between atoms: _318  and  _319
REMARK  129  A    between atoms: _322  and  _324
REMARK  130  A    between atoms: _324  and  _325
REMARK  131  A    between atoms: _324  and  _327
REMARK  132  A    between atoms: _327  and  _328
REMARK  133  A    between atoms: _331  and  _333
REMARK  134  A    between atoms: _333  and  _334
REMARK  135  A    between atoms: _333  and  _336
REMARK  136  A    between atoms: _336  and  _337
REMARK  137  A    between atoms: _340  and  _342
REMARK  138  A    between atoms: _342  and  _343
REMARK  139  A    between atoms: _342  and  _345
REMARK  140  A    between atoms: _348  and  _350
REMARK  141  A    between atoms: _350  and  _351
REMARK  142  A    between atoms: _350  and  _353
REMARK  143  A    between atoms: _353  and  _354
REMARK  144  A    between atoms: _357  and  _359
REMARK  145  A    between atoms: _359  and  _360
REMARK  146  A    between atoms: _359  and  _362
REMARK  147  A    between atoms: _362  and  _363
REMARK  148  A    between atoms: _363  and  _364
REMARK  149  A    between atoms: _364  and  _365
REMARK  150  A    between atoms: _365  and  _366
REMARK  151  A    between atoms: _370  and  _372
REMARK  152  A    between atoms: _372  and  _373
REMARK  153  A    between atoms: _372  and  _375
REMARK  154  A    between atoms: _375  and  _376
REMARK  155  A    between atoms: _376  and  _377
REMARK  156  A    between atoms: _379  and  _381
REMARK  157  A    between atoms: _381  and  _382
REMARK  158  A    between atoms: _381  and  _384
REMARK  159  A    between atoms: _384  and  _385
REMARK  160  A    between atoms: _388  and  _390
REMARK  161  A    between atoms: _390  and  _391
REMARK  162  A    between atoms: _393  and  _395
REMARK  163  A    between atoms: _395  and  _396
REMARK  164  A    between atoms: _398  and  _400
REMARK  165  A    between atoms: _400  and  _401
REMARK  166  A    between atoms: _400  and  _403
REMARK  167  A    between atoms: _403  and  _404
REMARK  168  A    between atoms: _407  and  _409
REMARK  169  A    between atoms: _409  and  _410
REMARK  170  A    between atoms: _412  and  _414
REMARK  171  A    between atoms: _414  and  _415
REMARK  172  A    between atoms: _417  and  _419
REMARK  173  A    between atoms: _419  and  _420
REMARK  174  A    between atoms: _419  and  _422
REMARK  175  A    between atoms: _422  and  _423
REMARK  176  A    between atoms: _429  and  _431
REMARK  177  A    between atoms: _431  and  _432
REMARK  178  A    between atoms: _431  and  _434
REMARK  179  A    between atoms: _434  and  _435
REMARK  180  A    between atoms: _438  and  _440
REMARK  181  A    between atoms: _440  and  _441
REMARK  182  A    between atoms: _440  and  _443
REMARK  183  A    between atoms: _446  and  _448
REMARK  184  A    between atoms: _448  and  _449
REMARK  185  A    between atoms: _448  and  _451
REMARK  186  A    between atoms: _451  and  _452
REMARK  187  A    between atoms: _455  and  _457
REMARK  188  A    between atoms: _457  and  _458
REMARK  189  A    between atoms: _457  and  _460
REMARK  190  A    between atoms: _460  and  _461
REMARK  191  A    between atoms: _465  and  _466
REMARK  192  A    between atoms: _471  and  _473
REMARK  193  A    between atoms: _473  and  _474
REMARK  194  A    between atoms: _473  and  _476
REMARK  195  A    between atoms: _479  and  _481
REMARK  196  A    between atoms: _481  and  _482
REMARK  197  A    between atoms: _481  and  _484
REMARK  198  A    between atoms: _484  and  _485
REMARK  199  A    between atoms: _490  and  _492
REMARK  200  A    between atoms: _492  and  _493
REMARK  201  A    between atoms: _492  and  _495
REMARK  202  A    between atoms: _495  and  _496
REMARK  203  A    between atoms: _499  and  _501
REMARK  204  A    between atoms: _501  and  _502
REMARK  205  A    between atoms: _501  and  _504
REMARK  206  A    between atoms: _504  and  _505
REMARK  207  A    between atoms: _508  and  _510
REMARK  208  A    between atoms: _510  and  _511
REMARK  209  A    between atoms: _513  and  _515
REMARK  210  A    between atoms: _515  and  _516
REMARK  211  A    between atoms: _515  and  _518
REMARK  212  A    between atoms: _518  and  _519
REMARK  213  A    between atoms: _519  and  _520
REMARK  214  A    between atoms: _520  and  _521
REMARK  215  A    between atoms: _530  and  _532
REMARK  216  A    between atoms: _532  and  _533
REMARK  217  A    between atoms: _532  and  _535
REMARK  218  A    between atoms: _535  and  _536
REMARK                            x       y       z     vdW  Elec       q    Type
REMARK                         _______ _______ _______ _____ _____    ______ ____
ROOT
ATOM      1  C   ALA A   6      16.476  32.144  21.300  0.00  0.00    +0.241 C 
ATOM      2  O   ALA A   6      16.038  31.468  22.232  0.00  0.00    -0.273 OA
ATOM      3  N   ASP A   7      16.468  33.474  21.326  0.00  0.00    -0.297 N 
ATOM      4  H   ASP A   7      16.864  34.012  20.529  0.00  0.00    +0.150 HD
ENDROOT
BRANCH   1   5
ATOM      5  CA  ALA A   6      17.041  31.475  20.053  0.00  0.00    +0.149 C 
ATOM      6  CB  ALA A   6      15.951  30.721  19.375  0.00  0.00    +0.031 C 
BRANCH   5   8
ATOM      7  C   GLY A   5      19.421  30.894  20.278  0.00  0.00    +0.243 C 
ATOM      8  N   ALA A   6      18.131  30.568  20.394  0.00  0.00    -0.297 N 
ATOM      9  H   ALA A   6      17.892  29.619  20.745  0.00  0.00    +0.150 HD
ATOM     10  O   GLY A   5      19.806  31.974  19.834  0.00  0.00    -0.273 OA
BRANCH   7  11
ATOM     11  CA  GLY A   5      20.432  29.835  20.680  0.00  0.00    +0.176 C 
BRANCH  11  14
ATOM     12  C   THR A   4      19.646  28.614  22.612  0.00  0.00    +0.243 C 
ATOM     13  O   THR A   4      19.930  29.567  23.348  0.00  0.00    -0.273 OA
ATOM     14  N   GLY A   5      19.889  28.644  21.308  0.00  0.00    -0.295 N 
ATOM     15  H   GLY A   5      19.688  27.804  20.729  0.00  0.00    +0.150 HD
BRANCH  12  16
ATOM     16  CA  THR A   4      19.027  27.342  23.208  0.00  0.00    +0.176 C 
BRANCH  16  18
ATOM     17  C   ASP A   3      17.343  26.866  21.517  0.00  0.00    +0.241 C 
ATOM     18  N   THR A   4      18.404  26.472  22.213  0.00  0.00    -0.295 N 
ATOM     19  H   THR A   4      18.799  25.525  22.046  0.00  0.00    +0.150 HD
ATOM     20  O   ASP A   3      16.788  27.958  21.701  0.00  0.00    -0.273 OA
BRANCH  17  21
ATOM     21  CA  ASP A   3      16.848  25.887  20.468  0.00  0.00    +0.160 C 
BRANCH  21  23
ATOM     22  C   LEU A   2      15.791  23.746  20.953  0.00  0.00    +0.241 C 
ATOM     23  N   ASP A   3      15.725  25.076  20.934  0.00  0.00    -0.297 N 
ATOM     24  H   ASP A   3      14.856  25.547  21.258  0.00  0.00    +0.150 HD
ATOM     25  O   LEU A   2      16.851  23.112  20.858  0.00  0.00    -0.273 OA
BRANCH  22  26
ATOM     26  CA  LEU A   2      14.480  22.985  21.099  0.00  0.00    +0.149 C 
BRANCH  26  28
ATOM     27  C   LEU A   1      13.632  23.182  18.830  0.00  0.00    +0.238 C 
ATOM     28  N   LEU A   2      14.169  22.436  19.783  0.00  0.00    -0.297 N 
ATOM     29  H   LEU A   2      14.374  21.435  19.589  0.00  0.00    +0.150 HD
ATOM     30  O   LEU A   1      13.190  24.300  19.037  0.00  0.00    -0.274 OA
BRANCH  27  31
ATOM     31  CA  LEU A   1      13.672  22.625  17.423  0.00  0.00    +0.145 C 
BRANCH  31  32
ATOM     32  N   LEU A   1      12.363  22.763  16.793  0.00  0.00    -0.238 NA
ATOM     33  H   LEU A   1      12.205  23.549  16.130  0.00  0.00    +0.142 HD
ENDBRANCH  31  32
BRANCH  31  34
ATOM     34  CB  LEU A   1      14.720  23.470  16.706  0.00  0.00    +0.026 C 
BRANCH  34  35
ATOM     35  CG  LEU A   1      15.254  23.040  15.366  0.00  0.00    +0.002 C 
ATOM     36  CD2 LEU A   1      16.099  21.790  15.479  0.00  0.00    +0.000 C 
ATOM     37  CD1 LEU A   1      16.077  24.184  14.801  0.00  0.00    +0.000 C 
ENDBRANCH  34  35
ENDBRANCH  31  34
ENDBRANCH  27  31
ENDBRANCH  26  28
BRANCH  26  38
ATOM     38  CB  LEU A   2      14.596  21.887  22.137  0.00  0.00    +0.029 C 
BRANCH  38  39
ATOM     39  CG  LEU A   2      13.332  21.057  22.338  0.00  0.00    +0.002 C 
ATOM     40  CD2 LEU A   2      13.653  20.027  23.423  0.00  0.00    +0.000 C 
ATOM     41  CD1 LEU A   2      12.102  21.907  22.714  0.00  0.00    +0.000 C 
ENDBRANCH  38  39
ENDBRANCH  26  38
ENDBRANCH  22  26
ENDBRANCH  21  23
BRANCH  21  42
ATOM     42  CB  ASP A   3      16.459  26.624  19.199  0.00  0.00    +0.143 C 
BRANCH  42  43
ATOM     43  CG  ASP A   3      17.632  27.258  18.523  0.00  0.00    +0.367 C 
ATOM     44  OD2 ASP A   3      18.736  27.245  19.108  0.00  0.00    -0.246 OA
ATOM     45  OD1 ASP A   3      17.450  27.761  17.396  0.00  0.00    -0.246 OA
ENDBRANCH  42  43
ENDBRANCH  21  42
ENDBRANCH  17  21
ENDBRANCH  16  18
BRANCH  16  46
ATOM     46  CB  THR A   4      20.102  26.569  23.987  0.00  0.00    +0.137 C 
ATOM     47  CG2 THR A   4      19.484  25.361  24.656  0.00  0.00    +0.034 C 
BRANCH  46  48
ATOM     48  OG1 THR A   4      21.157  26.133  23.110  0.00  0.00    -0.382 OA
ATOM     49  HG1 THR A   4      21.577  26.922  22.684  0.00  0.00    +0.210 HD
ENDBRANCH  46  48
ENDBRANCH  16  46
ENDBRANCH  12  16
ENDBRANCH  11  14
ENDBRANCH   7  11
ENDBRANCH   5   8
ENDBRANCH   1   5
BRANCH   3  50
ATOM     50  CA  ASP A   7      15.906  34.176  22.468  0.00  0.00    +0.160 C 
BRANCH  50  51
ATOM     51  C   ASP A   7      14.411  33.913  22.560  0.00  0.00    +0.241 C 
ATOM     52  O   ASP A   7      13.866  33.748  23.657  0.00  0.00    -0.273 OA
ATOM     53  N   ASP A   8      13.736  33.930  21.418  0.00  0.00    -0.297 N 
ATOM     54  H   ASP A   8      14.259  34.014  20.523  0.00  0.00    +0.150 HD
BRANCH  53  55
ATOM     55  CA  ASP A   8      12.289  33.835  21.383  0.00  0.00    +0.160 C 
BRANCH  55  56
ATOM     56  C   ASP A   8      11.854  32.811  20.361  0.00  0.00    +0.241 C 
ATOM     57  N   THR A   9      10.726  32.182  20.646  0.00  0.00    -0.295 N 
ATOM     58  H   THR A   9      10.241  32.435  21.530  0.00  0.00    +0.150 HD
ATOM     59  O   ASP A   8      12.506  32.598  19.353  0.00  0.00    -0.273 OA
BRANCH  57  60
ATOM     60  CA  THR A   9      10.117  31.162  19.810  0.00  0.00    +0.176 C 
BRANCH  60  61
ATOM     61  C   THR A   9       9.662  31.781  18.486  0.00  0.00    +0.243 C 
ATOM     62  O   THR A   9       9.047  32.848  18.481  0.00  0.00    -0.273 OA
ATOM     63  N   VAL A  10      10.001  31.104  17.387  0.00  0.00    -0.297 N 
ATOM     64  H   VAL A  10      10.538  30.222  17.509  0.00  0.00    +0.150 HD
BRANCH  63  65
ATOM     65  CA  VAL A  10       9.670  31.517  16.020  0.00  0.00    +0.149 C 
BRANCH  65  66
ATOM     66  C   VAL A  10       9.029  30.316  15.325  0.00  0.00    +0.241 C 
ATOM     67  O   VAL A  10       9.634  29.234  15.268  0.00  0.00    -0.273 OA
ATOM     68  N   LEU A  11       7.806  30.486  14.825  0.00  0.00    -0.298 N 
ATOM     69  H   LEU A  11       7.326  31.399  14.957  0.00  0.00    +0.150 HD
BRANCH  68  70
ATOM     70  CA  LEU A  11       7.129  29.428  14.101  0.00  0.00    +0.137 C 
BRANCH  70  71
ATOM     71  C   LEU A  11       6.921  29.812  12.653  0.00  0.00    +0.227 C 
ATOM     72  O   LEU A  11       6.784  30.984  12.297  0.00  0.00    -0.286 OA
ENDBRANCH  70  71
BRANCH  70  73
ATOM     73  CB  LEU A  11       5.778  29.110  14.746  0.00  0.00    +0.028 C 
BRANCH  73  74
ATOM     74  CG  LEU A  11       5.810  28.759  16.232  0.00  0.00    +0.002 C 
ATOM     75  CD2 LEU A  11       4.396  28.401  16.737  0.00  0.00    +0.000 C 
ATOM     76  CD1 LEU A  11       6.765  27.603  16.507  0.00  0.00    +0.000 C 
ENDBRANCH  73  74
ENDBRANCH  70  73
ENDBRANCH  68  70
ENDBRANCH  65  66
BRANCH  65  77
ATOM     77  CB  VAL A  10      10.923  31.942  15.214  0.00  0.00    +0.027 C 
ATOM     78  CG2 VAL A  10      11.857  32.800  16.068  0.00  0.00    +0.002 C 
ATOM     79  CG1 VAL A  10      10.518  32.672  13.929  0.00  0.00    +0.002 C 
ENDBRANCH  65  77
ENDBRANCH  63  65
ENDBRANCH  60  61
BRANCH  60  80
ATOM     80  CB  THR A   9       8.930  30.568  20.594  0.00  0.00    +0.137 C 
ATOM     81  CG2 THR A   9       8.083  29.602  19.779  0.00  0.00    +0.034 C 
BRANCH  80  82
ATOM     82  OG1 THR A   9       9.462  29.876  21.732  0.00  0.00    -0.382 OA
ATOM     83  HG1 THR A   9       9.965  30.513  22.299  0.00  0.00    +0.210 HD
ENDBRANCH  80  82
ENDBRANCH  60  80
ENDBRANCH  57  60
ENDBRANCH  55  56
BRANCH  55  84
ATOM     84  CB  ASP A   8      11.640  35.185  21.086  0.00  0.00    +0.143 C 
BRANCH  84  85
ATOM     85  CG  ASP A   8      11.777  36.154  22.235  0.00  0.00    +0.367 C 
ATOM     86  OD2 ASP A   8      11.178  35.928  23.317  0.00  0.00    -0.246 OA
ATOM     87  OD1 ASP A   8      12.514  37.127  22.040  0.00  0.00    -0.246 OA
ENDBRANCH  84  85
ENDBRANCH  55  84
ENDBRANCH  53  55
ENDBRANCH  50  51
BRANCH  50  88
ATOM     88  CB  ASP A   7      16.108  35.682  22.329  0.00  0.00    +0.143 C 
BRANCH  88  89
ATOM     89  CG  ASP A   7      17.552  36.113  22.388  0.00  0.00    +0.367 C 
ATOM     90  OD2 ASP A   7      18.406  35.371  22.900  0.00  0.00    -0.246 OA
ATOM     91  OD1 ASP A   7      17.828  37.249  21.945  0.00  0.00    -0.246 OA
ENDBRANCH  88  89
ENDBRANCH  50  88
ENDBRANCH   3  50
TORSDOF 39
REMARK  Name = ../refined-set-2016/3o9e/3o9e_pocket.pdb
REMARK  218 active torsions:
REMARK  status: ('A' for Active; 'I' for Inactive)
REMARK    1  A    between atoms: _1  and  _3
REMARK    2  A    between atoms: _3  and  _4
REMARK    3  A    between atoms: _3  and  _6
REMARK    4  A    between atoms: _6  and  _7
REMARK    5  A    between atoms: _7  and  _8
REMARK    6  A    between atoms: _8  and  _9
REMARK    7  A    between atoms: _18  and  _20
REMARK    8  A    between atoms: _20  and  _21
REMARK    9  A    between atoms: _20  and  _23
REMARK   10  A    between atoms: _23  and  _24
REMARK   11  A    between atoms: _27  and  _29
REMARK   12  A    between atoms: _29  and  _30
REMARK   13  A    between atoms: _29  and  _32
REMARK   14  A    between atoms: _32  and  _33
REMARK   15  A    between atoms: _36  and  _38
REMARK   16  A    between atoms: _38  and  _39
REMARK   17  A    between atoms: _38  and  _41
REMARK   18  A    between atoms: _41  and  _42
REMARK   19  A    between atoms: _45  and  _47
REMARK   20  A    between atoms: _47  and  _48
REMARK   21  A    between atoms: _47  and  _50
REMARK   22  A    between atoms: _50  and  _51
REMARK   23  A    between atoms: _54  and  _56
REMARK   24  A    between atoms: _56  and  _57
REMARK   25  A    between atoms: _59  and  _61
REMARK   26  A    between atoms: _61  and  _62
REMARK   27  A    between atoms: _65  and  _67
REMARK   28  A    between atoms: _67  and  _68
REMARK   29  A    between atoms: _67  and  _70
REMARK   30  A    between atoms: _70  and  _71
REMARK   31  A    between atoms: _74  and  _76
REMARK   32  A    between atoms: _76  and  _77
REMARK   33  A    between atoms: _76  and  _79
REMARK   34  A    between atoms: _79  and  _80
REMARK   35  A    between atoms: _83  and  _85
REMARK   36  A    between atoms: _85  and  _86
REMARK   37  A    between atoms: _85  and  _88
REMARK   38  A    between atoms: _88  and  _89
REMARK   39  A    between atoms: _92  and  _94
REMARK   40  A    between atoms: _94  and  _95
REMARK   41  A    between atoms: _94  and  _97
REMARK   42  A    between atoms: _100  and  _102
REMARK   43  A    between atoms: _102  and  _103
REMARK   44  A    between atoms: _102  and  _105
REMARK   45  A    between atoms: _105  and  _106
REMARK   46  A    between atoms: _109  and  _111
REMARK   47  A    between atoms: _111  and  _112
REMARK   48  A    between atoms: _114  and  _116
REMARK   49  A    between atoms: _116  and  _117
REMARK   50  A    between atoms: _119  and  _121
REMARK   51  A    between atoms: _121  and  _122
REMARK   52  A    between atoms: _121  and  _124
REMARK   53  A    between atoms: _124  and  _125
REMARK   54  A    between atoms: _128  and  _130
REMARK   55  A    between atoms: _130  and  _131
REMARK   56  A    between atoms: _133  and  _135
REMARK   57  A    between atoms: _135  and  _136
REMARK   58  A    between atoms: _138  and  _140
REMARK   59  A    between atoms: _140  and  _141
REMARK   60  A    between atoms: _140  and  _143
REMARK   61  A    between atoms: _143  and  _144
REMARK   62  A    between atoms: _147  and  _149
REMARK   63  A    between atoms: _149  and  _150
REMARK   64  A    between atoms: _149  and  _152
REMARK   65  A    between atoms: _152  and  _153
REMARK   66  A    between atoms: _157  and  _158
REMARK   67  A    between atoms: _163  and  _165
REMARK   68  A    between atoms: _165  and  _166
REMARK   69  A    between atoms: _165  and  _168
REMARK   70  A    between atoms: _168  and  _169
REMARK   71  A    between atoms: _173  and  _174
REMARK   72  A    between atoms: _179  and  _181
REMARK   73  A    between atoms: _181  and  _182
REMARK   74  A    between atoms: _181  and  _184
REMARK   75  A    between atoms: _187  and  _189
REMARK   76  A    between atoms: _189  and  _190
REMARK   77  A    between atoms: _189  and  _192
REMARK   78  A    between atoms: _192  and  _193
REMARK   79  A    between atoms: _198  and  _200
REMARK   80  A    between atoms: _200  and  _201
REMARK   81  A    between atoms: _200  and  _203
REMARK   82  A    between atoms: _203  and  _204
REMARK   83  A    between atoms: _207  and  _209
REMARK   84  A    between atoms: _209  and  _210
REMARK   85  A    between atoms: _209  and  _212
REMARK   86  A    between atoms: _212  and  _213
REMARK   87  A    between atoms: _216  and  _218
REMARK   88  A    between atoms: _218  and  _219
REMARK   89  A    between atoms: _221  and  _223
REMARK   90  A    between atoms: _223  and  _224
REMARK   91  A    between atoms: _223  and  _226
REMARK   92  A    between atoms: _226  and  _227
REMARK   93  A    between atoms: _227  and  _228
REMARK   94  A    between atoms: _228  and  _229
REMARK   95  A    between atoms: _238  and  _240
REMARK   96  A    between atoms: _240  and  _241
REMARK   97  A    between atoms: _240  and  _243
REMARK   98  A    between atoms: _243  and  _244
REMARK   99  A    between atoms: _249  and  _251
REMARK  100  A    between atoms: _251  and  _252
REMARK  101  A    between atoms: _251  and  _254
REMARK  102  A    between atoms: _254  and  _255
REMARK  103  A    between atoms: _255  and  _256
REMARK  104  A    between atoms: _256  and  _257
REMARK  105  A    between atoms: _266  and  _268
REMARK  106  A    between atoms: _268  and  _269
REMARK  107  A    between atoms: _268  and  _271
REMARK  108  A    between atoms: _271  and  _272
REMARK  109  A    between atoms: _275  and  _277
REMARK  110  A    between atoms: _277  and  _278
REMARK  111  A    between atoms: _277  and  _280
REMARK  112  A    between atoms: _280  and  _281
REMARK  113  A    between atoms: _284  and  _286
REMARK  114  A    between atoms: _286  and  _287
REMARK  115  A    between atoms: _286  and  _289
REMARK  116  A    between atoms: _289  and  _290
REMARK  117  A    between atoms: _293  and  _295
REMARK  118  A    between atoms: _295  and  _296
REMARK  119  A    between atoms: _295  and  _298
REMARK  120  A    between atoms: _298  and  _299
REMARK  121  A    between atoms: _302  and  _304
REMARK  122  A    between atoms: _304  and  _305
REMARK  123  A    between atoms: _307  and  _309
REMARK  124  A    between atoms: _309  and  _310
REMARK  125  A    between atoms: _313  and  _315
REMARK  126  A    between atoms: _315  and  _316
REMARK  127  A    between atoms: _315  and  _318
REMARK  128  A    between atoms: _318  and  _319
REMARK  129  A    between atoms: _322  and  _324
REMARK  130  A    between atoms: _324  and  _325
REMARK  131  A    between atoms: _324  and  _327
REMARK  132  A    between atoms: _327  and  _328
REMARK  133  A    between atoms: _331  and  _333
REMARK  134  A    between atoms: _333  and  _334
REMARK  135  A    between atoms: _333  and  _336
REMARK  136  A    between atoms: _336  and  _337
REMARK  137  A    between atoms: _340  and  _342
REMARK  138  A    between atoms: _342  and  _343
REMARK  139  A    between atoms: _342  and  _345
REMARK  140  A    between atoms: _348  and  _350
REMARK  141  A    between atoms: _350  and  _351
REMARK  142  A    between atoms: _350  and  _353
REMARK  143  A    between atoms: _353  and  _354
REMARK  144  A    between atoms: _357  and  _359
REMARK  145  A    between atoms: _359  and  _360
REMARK  146  A    between atoms: _359  and  _362
REMARK  147  A    between atoms: _362  and  _363
REMARK  148  A    between atoms: _363  and  _364
REMARK  149  A    between atoms: _364  and  _365
REMARK  150  A    between atoms: _365  and  _366
REMARK  151  A    between atoms: _370  and  _372
REMARK  152  A    between atoms: _372  and  _373
REMARK  153  A    between atoms: _372  and  _375
REMARK  154  A    between atoms: _375  and  _376
REMARK  155  A    between atoms: _376  and  _377
REMARK  156  A    between atoms: _379  and  _381
REMARK  157  A    between atoms: _381  and  _382
REMARK  158  A    between atoms: _381  and  _384
REMARK  159  A    between atoms: _384  and  _385
REMARK  160  A    between atoms: _388  and  _390
REMARK  161  A    between atoms: _390  and  _391
REMARK  162  A    between atoms: _393  and  _395
REMARK  163  A    between atoms: _395  and  _396
REMARK  164  A    between atoms: _398  and  _400
REMARK  165  A    between atoms: _400  and  _401
REMARK  166  A    between atoms: _400  and  _403
REMARK  167  A    between atoms: _403  and  _404
REMARK  168  A    between atoms: _407  and  _409
REMARK  169  A    between atoms: _409  and  _410
REMARK  170  A    between atoms: _412  and  _414
REMARK  171  A    between atoms: _414  and  _415
REMARK  172  A    between atoms: _417  and  _419
REMARK  173  A    between atoms: _419  and  _420
REMARK  174  A    between atoms: _419  and  _422
REMARK  175  A    between atoms: _422  and  _423
REMARK  176  A    between atoms: _429  and  _431
REMARK  177  A    between atoms: _431  and  _432
REMARK  178  A    between atoms: _431  and  _434
REMARK  179  A    between atoms: _434  and  _435
REMARK  180  A    between atoms: _438  and  _440
REMARK  181  A    between atoms: _440  and  _441
REMARK  182  A    between atoms: _440  and  _443
REMARK  183  A    between atoms: _446  and  _448
REMARK  184  A    between atoms: _448  and  _449
REMARK  185  A    between atoms: _448  and  _451
REMARK  186  A    between atoms: _451  and  _452
REMARK  187  A    between atoms: _455  and  _457
REMARK  188  A    between atoms: _457  and  _458
REMARK  189  A    between atoms: _457  and  _460
REMARK  190  A    between atoms: _460  and  _461
REMARK  191  A    between atoms: _465  and  _466
REMARK  192  A    between atoms: _471  and  _473
REMARK  193  A    between atoms: _473  and  _474
REMARK  194  A    between atoms: _473  and  _476
REMARK  195  A    between atoms: _479  and  _481
REMARK  196  A    between atoms: _481  and  _482
REMARK  197  A    between atoms: _481  and  _484
REMARK  198  A    between atoms: _484  and  _485
REMARK  199  A    between atoms: _490  and  _492
REMARK  200  A    between atoms: _492  and  _493
REMARK  201  A    between atoms: _492  and  _495
REMARK  202  A    between atoms: _495  and  _496
REMARK  203  A    between atoms: _499  and  _501
REMARK  204  A    between atoms: _501  and  _502
REMARK  205  A    between atoms: _501  and  _504
REMARK  206  A    between atoms: _504  and  _505
REMARK  207  A    between atoms: _508  and  _510
REMARK  208  A    between atoms: _510  and  _511
REMARK  209  A    between atoms: _513  and  _515
REMARK  210  A    between atoms: _515  and  _516
REMARK  211  A    between atoms: _515  and  _518
REMARK  212  A    between atoms: _518  and  _519
REMARK  213  A    between atoms: _519  and  _520
REMARK  214  A    between atoms: _520  and  _521
REMARK  215  A    between atoms: _530  and  _532
REMARK  216  A    between atoms: _532  and  _533
REMARK  217  A    between atoms: _532  and  _535
REMARK  218  A    between atoms: _535  and  _536
REMARK                            x       y       z     vdW  Elec       q    Type
REMARK                         _______ _______ _______ _____ _____    ______ ____
ROOT
ATOM      1  C   GLY A   5      21.463  35.414  11.293  0.00  0.00    +0.243 C 
ATOM      2  N   ILE A   6      21.974  34.212  11.060  0.00  0.00    -0.297 N 
ATOM      3  H   ILE A   6      21.731  33.417  11.685  0.00  0.00    +0.150 HD
ATOM      4  O   GLY A   5      21.756  36.397  10.622  0.00  0.00    -0.273 OA
ENDROOT
BRANCH   2   5
ATOM      5  CA  ILE A   6      22.874  33.999   9.933  0.00  0.00    +0.149 C 
BRANCH   5   6
ATOM      6  C   ILE A   6      22.115  34.297   8.643  0.00  0.00    +0.241 C 
ATOM      7  O   ILE A   6      21.008  33.806   8.432  0.00  0.00    -0.273 OA
ATOM      8  N   GLY A   7      22.690  35.169   7.824  0.00  0.00    -0.295 N 
ATOM      9  H   GLY A   7      23.611  35.571   8.090  0.00  0.00    +0.150 HD
BRANCH   8  10
ATOM     10  CA  GLY A   7      22.081  35.586   6.565  0.00  0.00    +0.176 C 
BRANCH  10  11
ATOM     11  C   GLY A   7      21.365  36.908   6.606  0.00  0.00    +0.243 C 
ATOM     12  N   GLY A   8      21.054  37.404   7.798  0.00  0.00    -0.295 N 
ATOM     13  H   GLY A   8      21.320  36.869   8.649  0.00  0.00    +0.150 HD
ATOM     14  O   GLY A   7      21.134  37.486   5.549  0.00  0.00    -0.273 OA
BRANCH  12  15
ATOM     15  CA  GLY A   8      20.351  38.674   7.955  0.00  0.00    +0.176 C 
BRANCH  15  16
ATOM     16  C   GLY A   8      19.053  38.511   8.704  0.00  0.00    +0.243 C 
ATOM     17  O   GLY A   8      18.915  37.626   9.537  0.00  0.00    -0.273 OA
ATOM     18  N   PHE A   9      18.105  39.389   8.403  0.00  0.00    -0.297 N 
ATOM     19  H   PHE A   9      18.243  40.020   7.588  0.00  0.00    +0.150 HD
BRANCH  18  20
ATOM     20  CA  PHE A   9      16.881  39.497   9.176  0.00  0.00    +0.153 C 
BRANCH  20  21
ATOM     21  C   PHE A   9      15.681  38.971   8.412  0.00  0.00    +0.241 C 
ATOM     22  N   ILE A  10      14.683  38.526   9.163  0.00  0.00    -0.298 N 
ATOM     23  H   ILE A  10      14.848  38.339  10.173  0.00  0.00    +0.150 HD
ATOM     24  O   PHE A   9      15.658  38.975   7.170  0.00  0.00    -0.273 OA
BRANCH  22  25
ATOM     25  CA  ILE A  10      13.346  38.292   8.595  0.00  0.00    +0.137 C 
BRANCH  25  26
ATOM     26  C   ILE A  10      12.323  39.085   9.388  0.00  0.00    +0.227 C 
ATOM     27  O   ILE A  10      12.535  39.399  10.570  0.00  0.00    -0.286 OA
ENDBRANCH  25  26
BRANCH  25  28
ATOM     28  CB  ILE A  10      12.921  36.807   8.553  0.00  0.00    +0.026 C 
ATOM     29  CG2 ILE A  10      13.816  36.031   7.596  0.00  0.00    +0.002 C 
BRANCH  28  30
ATOM     30  CG1 ILE A  10      12.906  36.169   9.943  0.00  0.00    +0.002 C 
ATOM     31  CD1 ILE A  10      12.160  34.833   9.987  0.00  0.00    +0.000 C 
ENDBRANCH  28  30
ENDBRANCH  25  28
ENDBRANCH  22  25
ENDBRANCH  20  21
BRANCH  20  32
ATOM     32  CB  PHE A   9      16.640  40.964   9.576  0.00  0.00    +0.055 C 
BRANCH  32  33
ATOM     33  CG  PHE A   9      17.530  41.454  10.696  0.00  0.00    -0.020 A 
ATOM     34  CD2 PHE A   9      17.017  41.646  11.973  0.00  0.00    -0.004 A 
ATOM     35  CE2 PHE A   9      17.818  42.093  13.013  0.00  0.00    -0.000 A 
ATOM     36  CZ  PHE A   9      19.148  42.339  12.778  0.00  0.00    -0.000 A 
ATOM     37  CE1 PHE A   9      19.660  42.168  11.531  0.00  0.00    -0.000 A 
ATOM     38  CD1 PHE A   9      18.881  41.728  10.492  0.00  0.00    -0.004 A 
ENDBRANCH  32  33
ENDBRANCH  20  32
ENDBRANCH  18  20
ENDBRANCH  15  16
ENDBRANCH  12  15
ENDBRANCH  10  11
ENDBRANCH   8  10
ENDBRANCH   5   6
BRANCH   5  39
ATOM     39  CB  ILE A   6      23.490  32.592   9.964  0.00  0.00    +0.027 C 
ATOM     40  CG2 ILE A   6      24.032  32.192   8.585  0.00  0.00    +0.002 C 
BRANCH  39  41
ATOM     41  CG1 ILE A   6      24.622  32.562  10.995  0.00  0.00    +0.002 C 
ATOM     42  CD1 ILE A   6      25.051  31.155  11.389  0.00  0.00    +0.000 C 
ENDBRANCH  39  41
ENDBRANCH   5  39
ENDBRANCH   2   5
BRANCH   1  43
ATOM     43  CA  GLY A   5      20.458  35.511  12.414  0.00  0.00    +0.176 C 
BRANCH  43  46
ATOM     44  C   GLY A   4      19.064  37.296  13.263  0.00  0.00    +0.243 C 
ATOM     45  O   GLY A   4      19.173  36.899  14.410  0.00  0.00    -0.273 OA
ATOM     46  N   GLY A   5      19.606  36.672  12.230  0.00  0.00    -0.295 N 
ATOM     47  H   GLY A   5      19.418  37.020  11.268  0.00  0.00    +0.150 HD
BRANCH  44  48
ATOM     48  CA  GLY A   4      18.305  38.561  12.931  0.00  0.00    +0.176 C 
BRANCH  48  50
ATOM     49  C   ILE A   3      15.904  38.806  13.070  0.00  0.00    +0.241 C 
ATOM     50  N   GLY A   4      17.088  38.735  13.668  0.00  0.00    -0.295 N 
ATOM     51  H   GLY A   4      17.133  38.808  14.704  0.00  0.00    +0.150 HD
ATOM     52  O   ILE A   3      15.717  38.564  11.874  0.00  0.00    -0.273 OA
BRANCH  49  53
ATOM     53  CA  ILE A   3      14.768  39.242  13.975  0.00  0.00    +0.149 C 
BRANCH  53  56
ATOM     54  C   MET A   2      13.523  41.317  13.507  0.00  0.00    +0.241 C 
ATOM     55  O   MET A   2      14.036  41.932  14.455  0.00  0.00    -0.273 OA
ATOM     56  N   ILE A   3      13.813  40.047  13.212  0.00  0.00    -0.297 N 
ATOM     57  H   ILE A   3      13.336  39.608  12.399  0.00  0.00    +0.150 HD
BRANCH  54  58
ATOM     58  CA  MET A   2      12.465  41.994  12.629  0.00  0.00    +0.149 C 
BRANCH  58  60
ATOM     59  C   LYS A   1      10.206  42.269  13.429  0.00  0.00    +0.238 C 
ATOM     60  N   MET A   2      11.480  42.617  13.507  0.00  0.00    -0.297 N 
ATOM     61  H   MET A   2      11.780  43.336  14.196  0.00  0.00    +0.150 HD
ATOM     62  O   LYS A   1       9.784  41.555  12.533  0.00  0.00    -0.274 OA
BRANCH  59  63
ATOM     63  CA  LYS A   1       9.278  42.782  14.510  0.00  0.00    +0.145 C 
BRANCH  63  64
ATOM     64  N   LYS A   1       7.937  42.813  13.950  0.00  0.00    -0.238 NA
ATOM     65  H   LYS A   1       7.683  42.122  13.215  0.00  0.00    +0.142 HD
ENDBRANCH  63  64
BRANCH  63  66
ATOM     66  CB  LYS A   1       9.302  41.840  15.723  0.00  0.00    +0.026 C 
BRANCH  66  67
ATOM     67  CG  LYS A   1      10.570  41.860  16.535  0.00  0.00    -0.000 C 
BRANCH  67  68
ATOM     68  CD  LYS A   1      10.567  40.849  17.668  0.00  0.00    -0.024 C 
BRANCH  68  69
ATOM     69  CE  LYS A   1      11.741  41.136  18.603  0.00  0.00    -0.086 C 
BRANCH  69  70
ATOM     70  NZ  LYS A   1      11.915  40.147  19.698  0.00  0.00    +0.380 N 
ATOM     71  HZ1 LYS A   1      11.058  40.128  20.286  0.00  0.00    -0.089 HD
ATOM     72  HZ2 LYS A   1      12.732  40.418  20.282  0.00  0.00    -0.089 HD
ATOM     73  HZ3 LYS A   1      12.077  39.204  19.290  0.00  0.00    -0.089 HD
ENDBRANCH  69  70
ENDBRANCH  68  69
ENDBRANCH  67  68
ENDBRANCH  66  67
ENDBRANCH  63  66
ENDBRANCH  59  63
ENDBRANCH  58  60
BRANCH  58  74
ATOM     74  CB  MET A   2      13.033  43.026  11.625  0.00  0.00    +0.041 C 
BRANCH  74  75
ATOM     75  CG  MET A   2      12.052  43.412  10.469  0.00  0.00    +0.060 C 
BRANCH  75  76
ATOM     76  SD  MET A   2      12.651  44.743   9.378  0.00  0.00    -0.139 S 
ATOM     77  CE  MET A   2      14.119  44.014   8.666  0.00  0.00    +0.069 C 
ENDBRANCH  75  76
ENDBRANCH  74  75
ENDBRANCH  58  74
ENDBRANCH  54  58
ENDBRANCH  53  56
BRANCH  53  78
ATOM     78  CB  ILE A   3      14.139  38.019  14.659  0.00  0.00    +0.027 C 
ATOM     79  CG2 ILE A   3      13.105  38.482  15.665  0.00  0.00    +0.002 C 
BRANCH  78  80
ATOM     80  CG1 ILE A   3      13.507  37.067  13.642  0.00  0.00    +0.002 C 
ATOM     81  CD1 ILE A   3      12.958  35.768  14.259  0.00  0.00    +0.000 C 
ENDBRANCH  78  80
ENDBRANCH  53  78
ENDBRANCH  49  53
ENDBRANCH  48  50
ENDBRANCH  44  48
ENDBRANCH  43  46
ENDBRANCH   1  43
TORSDOF 36
REMARK  Name = ../refined-set-2016/3o9e/3o9e_pocket.pdb
REMARK  218 active torsions:
REMARK  status: ('A' for Active; 'I' for Inactive)
REMARK    1  A    between atoms: _1  and  _3
REMARK    2  A    between atoms: _3  and  _4
REMARK    3  A    between atoms: _3  and  _6
REMARK    4  A    between atoms: _6  and  _7
REMARK    5  A    between atoms: _7  and  _8
REMARK    6  A    between atoms: _8  and  _9
REMARK    7  A    between atoms: _18  and  _20
REMARK    8  A    between atoms: _20  and  _21
REMARK    9  A    between atoms: _20  and  _23
REMARK   10  A    between atoms: _23  and  _24
REMARK   11  A    between atoms: _27  and  _29
REMARK   12  A    between atoms: _29  and  _30
REMARK   13  A    between atoms: _29  and  _32
REMARK   14  A    between atoms: _32  and  _33
REMARK   15  A    between atoms: _36  and  _38
REMARK   16  A    between atoms: _38  and  _39
REMARK   17  A    between atoms: _38  and  _41
REMARK   18  A    between atoms: _41  and  _42
REMARK   19  A    between atoms: _45  and  _47
REMARK   20  A    between atoms: _47  and  _48
REMARK   21  A    between atoms: _47  and  _50
REMARK   22  A    between atoms: _50  and  _51
REMARK   23  A    between atoms: _54  and  _56
REMARK   24  A    between atoms: _56  and  _57
REMARK   25  A    between atoms: _59  and  _61
REMARK   26  A    between atoms: _61  and  _62
REMARK   27  A    between atoms: _65  and  _67
REMARK   28  A    between atoms: _67  and  _68
REMARK   29  A    between atoms: _67  and  _70
REMARK   30  A    between atoms: _70  and  _71
REMARK   31  A    between atoms: _74  and  _76
REMARK   32  A    between atoms: _76  and  _77
REMARK   33  A    between atoms: _76  and  _79
REMARK   34  A    between atoms: _79  and  _80
REMARK   35  A    between atoms: _83  and  _85
REMARK   36  A    between atoms: _85  and  _86
REMARK   37  A    between atoms: _85  and  _88
REMARK   38  A    between atoms: _88  and  _89
REMARK   39  A    between atoms: _92  and  _94
REMARK   40  A    between atoms: _94  and  _95
REMARK   41  A    between atoms: _94  and  _97
REMARK   42  A    between atoms: _100  and  _102
REMARK   43  A    between atoms: _102  and  _103
REMARK   44  A    between atoms: _102  and  _105
REMARK   45  A    between atoms: _105  and  _106
REMARK   46  A    between atoms: _109  and  _111
REMARK   47  A    between atoms: _111  and  _112
REMARK   48  A    between atoms: _114  and  _116
REMARK   49  A    between atoms: _116  and  _117
REMARK   50  A    between atoms: _119  and  _121
REMARK   51  A    between atoms: _121  and  _122
REMARK   52  A    between atoms: _121  and  _124
REMARK   53  A    between atoms: _124  and  _125
REMARK   54  A    between atoms: _128  and  _130
REMARK   55  A    between atoms: _130  and  _131
REMARK   56  A    between atoms: _133  and  _135
REMARK   57  A    between atoms: _135  and  _136
REMARK   58  A    between atoms: _138  and  _140
REMARK   59  A    between atoms: _140  and  _141
REMARK   60  A    between atoms: _140  and  _143
REMARK   61  A    between atoms: _143  and  _144
REMARK   62  A    between atoms: _147  and  _149
REMARK   63  A    between atoms: _149  and  _150
REMARK   64  A    between atoms: _149  and  _152
REMARK   65  A    between atoms: _152  and  _153
REMARK   66  A    between atoms: _157  and  _158
REMARK   67  A    between atoms: _163  and  _165
REMARK   68  A    between atoms: _165  and  _166
REMARK   69  A    between atoms: _165  and  _168
REMARK   70  A    between atoms: _168  and  _169
REMARK   71  A    between atoms: _173  and  _174
REMARK   72  A    between atoms: _179  and  _181
REMARK   73  A    between atoms: _181  and  _182
REMARK   74  A    between atoms: _181  and  _184
REMARK   75  A    between atoms: _187  and  _189
REMARK   76  A    between atoms: _189  and  _190
REMARK   77  A    between atoms: _189  and  _192
REMARK   78  A    between atoms: _192  and  _193
REMARK   79  A    between atoms: _198  and  _200
REMARK   80  A    between atoms: _200  and  _201
REMARK   81  A    between atoms: _200  and  _203
REMARK   82  A    between atoms: _203  and  _204
REMARK   83  A    between atoms: _207  and  _209
REMARK   84  A    between atoms: _209  and  _210
REMARK   85  A    between atoms: _209  and  _212
REMARK   86  A    between atoms: _212  and  _213
REMARK   87  A    between atoms: _216  and  _218
REMARK   88  A    between atoms: _218  and  _219
REMARK   89  A    between atoms: _221  and  _223
REMARK   90  A    between atoms: _223  and  _224
REMARK   91  A    between atoms: _223  and  _226
REMARK   92  A    between atoms: _226  and  _227
REMARK   93  A    between atoms: _227  and  _228
REMARK   94  A    between atoms: _228  and  _229
REMARK   95  A    between atoms: _238  and  _240
REMARK   96  A    between atoms: _240  and  _241
REMARK   97  A    between atoms: _240  and  _243
REMARK   98  A    between atoms: _243  and  _244
REMARK   99  A    between atoms: _249  and  _251
REMARK  100  A    between atoms: _251  and  _252
REMARK  101  A    between atoms: _251  and  _254
REMARK  102  A    between atoms: _254  and  _255
REMARK  103  A    between atoms: _255  and  _256
REMARK  104  A    between atoms: _256  and  _257
REMARK  105  A    between atoms: _266  and  _268
REMARK  106  A    between atoms: _268  and  _269
REMARK  107  A    between atoms: _268  and  _271
REMARK  108  A    between atoms: _271  and  _272
REMARK  109  A    between atoms: _275  and  _277
REMARK  110  A    between atoms: _277  and  _278
REMARK  111  A    between atoms: _277  and  _280
REMARK  112  A    between atoms: _280  and  _281
REMARK  113  A    between atoms: _284  and  _286
REMARK  114  A    between atoms: _286  and  _287
REMARK  115  A    between atoms: _286  and  _289
REMARK  116  A    between atoms: _289  and  _290
REMARK  117  A    between atoms: _293  and  _295
REMARK  118  A    between atoms: _295  and  _296
REMARK  119  A    between atoms: _295  and  _298
REMARK  120  A    between atoms: _298  and  _299
REMARK  121  A    between atoms: _302  and  _304
REMARK  122  A    between atoms: _304  and  _305
REMARK  123  A    between atoms: _307  and  _309
REMARK  124  A    between atoms: _309  and  _310
REMARK  125  A    between atoms: _313  and  _315
REMARK  126  A    between atoms: _315  and  _316
REMARK  127  A    between atoms: _315  and  _318
REMARK  128  A    between atoms: _318  and  _319
REMARK  129  A    between atoms: _322  and  _324
REMARK  130  A    between atoms: _324  and  _325
REMARK  131  A    between atoms: _324  and  _327
REMARK  132  A    between atoms: _327  and  _328
REMARK  133  A    between atoms: _331  and  _333
REMARK  134  A    between atoms: _333  and  _334
REMARK  135  A    between atoms: _333  and  _336
REMARK  136  A    between atoms: _336  and  _337
REMARK  137  A    between atoms: _340  and  _342
REMARK  138  A    between atoms: _342  and  _343
REMARK  139  A    between atoms: _342  and  _345
REMARK  140  A    between atoms: _348  and  _350
REMARK  141  A    between atoms: _350  and  _351
REMARK  142  A    between atoms: _350  and  _353
REMARK  143  A    between atoms: _353  and  _354
REMARK  144  A    between atoms: _357  and  _359
REMARK  145  A    between atoms: _359  and  _360
REMARK  146  A    between atoms: _359  and  _362
REMARK  147  A    between atoms: _362  and  _363
REMARK  148  A    between atoms: _363  and  _364
REMARK  149  A    between atoms: _364  and  _365
REMARK  150  A    between atoms: _365  and  _366
REMARK  151  A    between atoms: _370  and  _372
REMARK  152  A    between atoms: _372  and  _373
REMARK  153  A    between atoms: _372  and  _375
REMARK  154  A    between atoms: _375  and  _376
REMARK  155  A    between atoms: _376  and  _377
REMARK  156  A    between atoms: _379  and  _381
REMARK  157  A    between atoms: _381  and  _382
REMARK  158  A    between atoms: _381  and  _384
REMARK  159  A    between atoms: _384  and  _385
REMARK  160  A    between atoms: _388  and  _390
REMARK  161  A    between atoms: _390  and  _391
REMARK  162  A    between atoms: _393  and  _395
REMARK  163  A    between atoms: _395  and  _396
REMARK  164  A    between atoms: _398  and  _400
REMARK  165  A    between atoms: _400  and  _401
REMARK  166  A    between atoms: _400  and  _403
REMARK  167  A    between atoms: _403  and  _404
REMARK  168  A    between atoms: _407  and  _409
REMARK  169  A    between atoms: _409  and  _410
REMARK  170  A    between atoms: _412  and  _414
REMARK  171  A    between atoms: _414  and  _415
REMARK  172  A    between atoms: _417  and  _419
REMARK  173  A    between atoms: _419  and  _420
REMARK  174  A    between atoms: _419  and  _422
REMARK  175  A    between atoms: _422  and  _423
REMARK  176  A    between atoms: _429  and  _431
REMARK  177  A    between atoms: _431  and  _432
REMARK  178  A    between atoms: _431  and  _434
REMARK  179  A    between atoms: _434  and  _435
REMARK  180  A    between atoms: _438  and  _440
REMARK  181  A    between atoms: _440  and  _441
REMARK  182  A    between atoms: _440  and  _443
REMARK  183  A    between atoms: _446  and  _448
REMARK  184  A    between atoms: _448  and  _449
REMARK  185  A    between atoms: _448  and  _451
REMARK  186  A    between atoms: _451  and  _452
REMARK  187  A    between atoms: _455  and  _457
REMARK  188  A    between atoms: _457  and  _458
REMARK  189  A    between atoms: _457  and  _460
REMARK  190  A    between atoms: _460  and  _461
REMARK  191  A    between atoms: _465  and  _466
REMARK  192  A    between atoms: _471  and  _473
REMARK  193  A    between atoms: _473  and  _474
REMARK  194  A    between atoms: _473  and  _476
REMARK  195  A    between atoms: _479  and  _481
REMARK  196  A    between atoms: _481  and  _482
REMARK  197  A    between atoms: _481  and  _484
REMARK  198  A    between atoms: _484  and  _485
REMARK  199  A    between atoms: _490  and  _492
REMARK  200  A    between atoms: _492  and  _493
REMARK  201  A    between atoms: _492  and  _495
REMARK  202  A    between atoms: _495  and  _496
REMARK  203  A    between atoms: _499  and  _501
REMARK  204  A    between atoms: _501  and  _502
REMARK  205  A    between atoms: _501  and  _504
REMARK  206  A    between atoms: _504  and  _505
REMARK  207  A    between atoms: _508  and  _510
REMARK  208  A    between atoms: _510  and  _511
REMARK  209  A    between atoms: _513  and  _515
REMARK  210  A    between atoms: _515  and  _516
REMARK  211  A    between atoms: _515  and  _518
REMARK  212  A    between atoms: _518  and  _519
REMARK  213  A    between atoms: _519  and  _520
REMARK  214  A    between atoms: _520  and  _521
REMARK  215  A    between atoms: _530  and  _532
REMARK  216  A    between atoms: _532  and  _533
REMARK  217  A    between atoms: _532  and  _535
REMARK  218  A    between atoms: _535  and  _536
REMARK                            x       y       z     vdW  Elec       q    Type
REMARK                         _______ _______ _______ _____ _____    ______ ____
ROOT
ATOM      1  CA  VAL A   1       7.814  38.364  11.858  0.00  0.00    +0.133 C 
ENDROOT
BRANCH   1   2
ATOM      2  CB  VAL A   1       8.544  37.528  12.929  0.00  0.00    +0.023 C 
ATOM      3  CG2 VAL A   1       9.126  38.418  14.028  0.00  0.00    +0.002 C 
ATOM      4  CG1 VAL A   1       9.640  36.691  12.288  0.00  0.00    +0.002 C 
ENDBRANCH   1   2
BRANCH   1   5
ATOM      5  N   VAL A   1       8.737  39.272  11.175  0.00  0.00    -0.239 NA
ATOM      6  H   VAL A   1       9.076  40.117  11.677  0.00  0.00    +0.142 HD
ENDBRANCH   1   5
BRANCH   1   7
ATOM      7  C   VAL A   1       6.679  39.141  12.521  0.00  0.00    +0.224 C 
ATOM      8  O   VAL A   1       6.749  40.368  12.695  0.00  0.00    -0.287 OA
ENDBRANCH   1   7
TORSDOF 3
REMARK  Name = ../refined-set-2016/3o9e/3o9e_pocket.pdb
REMARK  218 active torsions:
REMARK  status: ('A' for Active; 'I' for Inactive)
REMARK    1  A    between atoms: _1  and  _3
REMARK    2  A    between atoms: _3  and  _4
REMARK    3  A    between atoms: _3  and  _6
REMARK    4  A    between atoms: _6  and  _7
REMARK    5  A    between atoms: _7  and  _8
REMARK    6  A    between atoms: _8  and  _9
REMARK    7  A    between atoms: _18  and  _20
REMARK    8  A    between atoms: _20  and  _21
REMARK    9  A    between atoms: _20  and  _23
REMARK   10  A    between atoms: _23  and  _24
REMARK   11  A    between atoms: _27  and  _29
REMARK   12  A    between atoms: _29  and  _30
REMARK   13  A    between atoms: _29  and  _32
REMARK   14  A    between atoms: _32  and  _33
REMARK   15  A    between atoms: _36  and  _38
REMARK   16  A    between atoms: _38  and  _39
REMARK   17  A    between atoms: _38  and  _41
REMARK   18  A    between atoms: _41  and  _42
REMARK   19  A    between atoms: _45  and  _47
REMARK   20  A    between atoms: _47  and  _48
REMARK   21  A    between atoms: _47  and  _50
REMARK   22  A    between atoms: _50  and  _51
REMARK   23  A    between atoms: _54  and  _56
REMARK   24  A    between atoms: _56  and  _57
REMARK   25  A    between atoms: _59  and  _61
REMARK   26  A    between atoms: _61  and  _62
REMARK   27  A    between atoms: _65  and  _67
REMARK   28  A    between atoms: _67  and  _68
REMARK   29  A    between atoms: _67  and  _70
REMARK   30  A    between atoms: _70  and  _71
REMARK   31  A    between atoms: _74  and  _76
REMARK   32  A    between atoms: _76  and  _77
REMARK   33  A    between atoms: _76  and  _79
REMARK   34  A    between atoms: _79  and  _80
REMARK   35  A    between atoms: _83  and  _85
REMARK   36  A    between atoms: _85  and  _86
REMARK   37  A    between atoms: _85  and  _88
REMARK   38  A    between atoms: _88  and  _89
REMARK   39  A    between atoms: _92  and  _94
REMARK   40  A    between atoms: _94  and  _95
REMARK   41  A    between atoms: _94  and  _97
REMARK   42  A    between atoms: _100  and  _102
REMARK   43  A    between atoms: _102  and  _103
REMARK   44  A    between atoms: _102  and  _105
REMARK   45  A    between atoms: _105  and  _106
REMARK   46  A    between atoms: _109  and  _111
REMARK   47  A    between atoms: _111  and  _112
REMARK   48  A    between atoms: _114  and  _116
REMARK   49  A    between atoms: _116  and  _117
REMARK   50  A    between atoms: _119  and  _121
REMARK   51  A    between atoms: _121  and  _122
REMARK   52  A    between atoms: _121  and  _124
REMARK   53  A    between atoms: _124  and  _125
REMARK   54  A    between atoms: _128  and  _130
REMARK   55  A    between atoms: _130  and  _131
REMARK   56  A    between atoms: _133  and  _135
REMARK   57  A    between atoms: _135  and  _136
REMARK   58  A    between atoms: _138  and  _140
REMARK   59  A    between atoms: _140  and  _141
REMARK   60  A    between atoms: _140  and  _143
REMARK   61  A    between atoms: _143  and  _144
REMARK   62  A    between atoms: _147  and  _149
REMARK   63  A    between atoms: _149  and  _150
REMARK   64  A    between atoms: _149  and  _152
REMARK   65  A    between atoms: _152  and  _153
REMARK   66  A    between atoms: _157  and  _158
REMARK   67  A    between atoms: _163  and  _165
REMARK   68  A    between atoms: _165  and  _166
REMARK   69  A    between atoms: _165  and  _168
REMARK   70  A    between atoms: _168  and  _169
REMARK   71  A    between atoms: _173  and  _174
REMARK   72  A    between atoms: _179  and  _181
REMARK   73  A    between atoms: _181  and  _182
REMARK   74  A    between atoms: _181  and  _184
REMARK   75  A    between atoms: _187  and  _189
REMARK   76  A    between atoms: _189  and  _190
REMARK   77  A    between atoms: _189  and  _192
REMARK   78  A    between atoms: _192  and  _193
REMARK   79  A    between atoms: _198  and  _200
REMARK   80  A    between atoms: _200  and  _201
REMARK   81  A    between atoms: _200  and  _203
REMARK   82  A    between atoms: _203  and  _204
REMARK   83  A    between atoms: _207  and  _209
REMARK   84  A    between atoms: _209  and  _210
REMARK   85  A    between atoms: _209  and  _212
REMARK   86  A    between atoms: _212  and  _213
REMARK   87  A    between atoms: _216  and  _218
REMARK   88  A    between atoms: _218  and  _219
REMARK   89  A    between atoms: _221  and  _223
REMARK   90  A    between atoms: _223  and  _224
REMARK   91  A    between atoms: _223  and  _226
REMARK   92  A    between atoms: _226  and  _227
REMARK   93  A    between atoms: _227  and  _228
REMARK   94  A    between atoms: _228  and  _229
REMARK   95  A    between atoms: _238  and  _240
REMARK   96  A    between atoms: _240  and  _241
REMARK   97  A    between atoms: _240  and  _243
REMARK   98  A    between atoms: _243  and  _244
REMARK   99  A    between atoms: _249  and  _251
REMARK  100  A    between atoms: _251  and  _252
REMARK  101  A    between atoms: _251  and  _254
REMARK  102  A    between atoms: _254  and  _255
REMARK  103  A    between atoms: _255  and  _256
REMARK  104  A    between atoms: _256  and  _257
REMARK  105  A    between atoms: _266  and  _268
REMARK  106  A    between atoms: _268  and  _269
REMARK  107  A    between atoms: _268  and  _271
REMARK  108  A    between atoms: _271  and  _272
REMARK  109  A    between atoms: _275  and  _277
REMARK  110  A    between atoms: _277  and  _278
REMARK  111  A    between atoms: _277  and  _280
REMARK  112  A    between atoms: _280  and  _281
REMARK  113  A    between atoms: _284  and  _286
REMARK  114  A    between atoms: _286  and  _287
REMARK  115  A    between atoms: _286  and  _289
REMARK  116  A    between atoms: _289  and  _290
REMARK  117  A    between atoms: _293  and  _295
REMARK  118  A    between atoms: _295  and  _296
REMARK  119  A    between atoms: _295  and  _298
REMARK  120  A    between atoms: _298  and  _299
REMARK  121  A    between atoms: _302  and  _304
REMARK  122  A    between atoms: _304  and  _305
REMARK  123  A    between atoms: _307  and  _309
REMARK  124  A    between atoms: _309  and  _310
REMARK  125  A    between atoms: _313  and  _315
REMARK  126  A    between atoms: _315  and  _316
REMARK  127  A    between atoms: _315  and  _318
REMARK  128  A    between atoms: _318  and  _319
REMARK  129  A    between atoms: _322  and  _324
REMARK  130  A    between atoms: _324  and  _325
REMARK  131  A    between atoms: _324  and  _327
REMARK  132  A    between atoms: _327  and  _328
REMARK  133  A    between atoms: _331  and  _333
REMARK  134  A    between atoms: _333  and  _334
REMARK  135  A    between atoms: _333  and  _336
REMARK  136  A    between atoms: _336  and  _337
REMARK  137  A    between atoms: _340  and  _342
REMARK  138  A    between atoms: _342  and  _343
REMARK  139  A    between atoms: _342  and  _345
REMARK  140  A    between atoms: _348  and  _350
REMARK  141  A    between atoms: _350  and  _351
REMARK  142  A    between atoms: _350  and  _353
REMARK  143  A    between atoms: _353  and  _354
REMARK  144  A    between atoms: _357  and  _359
REMARK  145  A    between atoms: _359  and  _360
REMARK  146  A    between atoms: _359  and  _362
REMARK  147  A    between atoms: _362  and  _363
REMARK  148  A    between atoms: _363  and  _364
REMARK  149  A    between atoms: _364  and  _365
REMARK  150  A    between atoms: _365  and  _366
REMARK  151  A    between atoms: _370  and  _372
REMARK  152  A    between atoms: _372  and  _373
REMARK  153  A    between atoms: _372  and  _375
REMARK  154  A    between atoms: _375  and  _376
REMARK  155  A    between atoms: _376  and  _377
REMARK  156  A    between atoms: _379  and  _381
REMARK  157  A    between atoms: _381  and  _382
REMARK  158  A    between atoms: _381  and  _384
REMARK  159  A    between atoms: _384  and  _385
REMARK  160  A    between atoms: _388  and  _390
REMARK  161  A    between atoms: _390  and  _391
REMARK  162  A    between atoms: _393  and  _395
REMARK  163  A    between atoms: _395  and  _396
REMARK  164  A    between atoms: _398  and  _400
REMARK  165  A    between atoms: _400  and  _401
REMARK  166  A    between atoms: _400  and  _403
REMARK  167  A    between atoms: _403  and  _404
REMARK  168  A    between atoms: _407  and  _409
REMARK  169  A    between atoms: _409  and  _410
REMARK  170  A    between atoms: _412  and  _414
REMARK  171  A    between atoms: _414  and  _415
REMARK  172  A    between atoms: _417  and  _419
REMARK  173  A    between atoms: _419  and  _420
REMARK  174  A    between atoms: _419  and  _422
REMARK  175  A    between atoms: _422  and  _423
REMARK  176  A    between atoms: _429  and  _431
REMARK  177  A    between atoms: _431  and  _432
REMARK  178  A    between atoms: _431  and  _434
REMARK  179  A    between atoms: _434  and  _435
REMARK  180  A    between atoms: _438  and  _440
REMARK  181  A    between atoms: _440  and  _441
REMARK  182  A    between atoms: _440  and  _443
REMARK  183  A    between atoms: _446  and  _448
REMARK  184  A    between atoms: _448  and  _449
REMARK  185  A    between atoms: _448  and  _451
REMARK  186  A    between atoms: _451  and  _452
REMARK  187  A    between atoms: _455  and  _457
REMARK  188  A    between atoms: _457  and  _458
REMARK  189  A    between atoms: _457  and  _460
REMARK  190  A    between atoms: _460  and  _461
REMARK  191  A    between atoms: _465  and  _466
REMARK  192  A    between atoms: _471  and  _473
REMARK  193  A    between atoms: _473  and  _474
REMARK  194  A    between atoms: _473  and  _476
REMARK  195  A    between atoms: _479  and  _481
REMARK  196  A    between atoms: _481  and  _482
REMARK  197  A    between atoms: _481  and  _484
REMARK  198  A    between atoms: _484  and  _485
REMARK  199  A    between atoms: _490  and  _492
REMARK  200  A    between atoms: _492  and  _493
REMARK  201  A    between atoms: _492  and  _495
REMARK  202  A    between atoms: _495  and  _496
REMARK  203  A    between atoms: _499  and  _501
REMARK  204  A    between atoms: _501  and  _502
REMARK  205  A    between atoms: _501  and  _504
REMARK  206  A    between atoms: _504  and  _505
REMARK  207  A    between atoms: _508  and  _510
REMARK  208  A    between atoms: _510  and  _511
REMARK  209  A    between atoms: _513  and  _515
REMARK  210  A    between atoms: _515  and  _516
REMARK  211  A    between atoms: _515  and  _518
REMARK  212  A    between atoms: _518  and  _519
REMARK  213  A    between atoms: _519  and  _520
REMARK  214  A    between atoms: _520  and  _521
REMARK  215  A    between atoms: _530  and  _532
REMARK  216  A    between atoms: _532  and  _533
REMARK  217  A    between atoms: _532  and  _535
REMARK  218  A    between atoms: _535  and  _536
REMARK                            x       y       z     vdW  Elec       q    Type
REMARK                         _______ _______ _______ _____ _____    ______ ____
ROOT
ATOM      1  CA  LEU A   1       6.864  35.045  16.638  0.00  0.00    +0.133 C 
ENDROOT
BRANCH   1   2
ATOM      2  N   LEU A   1       6.610  34.276  17.837  0.00  0.00    -0.239 NA
ATOM      3  H   LEU A   1       7.352  33.638  18.189  0.00  0.00    +0.142 HD
ENDBRANCH   1   2
BRANCH   1   4
ATOM      4  C   LEU A   1       6.455  34.155  15.472  0.00  0.00    +0.224 C 
ATOM      5  O   LEU A   1       6.612  32.937  15.549  0.00  0.00    -0.287 OA
ENDBRANCH   1   4
BRANCH   1   6
ATOM      6  CB  LEU A   1       8.333  35.448  16.523  0.00  0.00    +0.025 C 
BRANCH   6   7
ATOM      7  CG  LEU A   1       8.897  36.194  17.749  0.00  0.00    +0.002 C 
ATOM      8  CD2 LEU A   1       8.141  37.474  18.064  0.00  0.00    +0.000 C 
ATOM      9  CD1 LEU A   1      10.393  36.497  17.572  0.00  0.00    +0.000 C 
ENDBRANCH   6   7
ENDBRANCH   1   6
TORSDOF 4
REMARK  Name = ../refined-set-2016/3o9e/3o9e_pocket.pdb
REMARK  218 active torsions:
REMARK  status: ('A' for Active; 'I' for Inactive)
REMARK    1  A    between atoms: _1  and  _3
REMARK    2  A    between atoms: _3  and  _4
REMARK    3  A    between atoms: _3  and  _6
REMARK    4  A    between atoms: _6  and  _7
REMARK    5  A    between atoms: _7  and  _8
REMARK    6  A    between atoms: _8  and  _9
REMARK    7  A    between atoms: _18  and  _20
REMARK    8  A    between atoms: _20  and  _21
REMARK    9  A    between atoms: _20  and  _23
REMARK   10  A    between atoms: _23  and  _24
REMARK   11  A    between atoms: _27  and  _29
REMARK   12  A    between atoms: _29  and  _30
REMARK   13  A    between atoms: _29  and  _32
REMARK   14  A    between atoms: _32  and  _33
REMARK   15  A    between atoms: _36  and  _38
REMARK   16  A    between atoms: _38  and  _39
REMARK   17  A    between atoms: _38  and  _41
REMARK   18  A    between atoms: _41  and  _42
REMARK   19  A    between atoms: _45  and  _47
REMARK   20  A    between atoms: _47  and  _48
REMARK   21  A    between atoms: _47  and  _50
REMARK   22  A    between atoms: _50  and  _51
REMARK   23  A    between atoms: _54  and  _56
REMARK   24  A    between atoms: _56  and  _57
REMARK   25  A    between atoms: _59  and  _61
REMARK   26  A    between atoms: _61  and  _62
REMARK   27  A    between atoms: _65  and  _67
REMARK   28  A    between atoms: _67  and  _68
REMARK   29  A    between atoms: _67  and  _70
REMARK   30  A    between atoms: _70  and  _71
REMARK   31  A    between atoms: _74  and  _76
REMARK   32  A    between atoms: _76  and  _77
REMARK   33  A    between atoms: _76  and  _79
REMARK   34  A    between atoms: _79  and  _80
REMARK   35  A    between atoms: _83  and  _85
REMARK   36  A    between atoms: _85  and  _86
REMARK   37  A    between atoms: _85  and  _88
REMARK   38  A    between atoms: _88  and  _89
REMARK   39  A    between atoms: _92  and  _94
REMARK   40  A    between atoms: _94  and  _95
REMARK   41  A    between atoms: _94  and  _97
REMARK   42  A    between atoms: _100  and  _102
REMARK   43  A    between atoms: _102  and  _103
REMARK   44  A    between atoms: _102  and  _105
REMARK   45  A    between atoms: _105  and  _106
REMARK   46  A    between atoms: _109  and  _111
REMARK   47  A    between atoms: _111  and  _112
REMARK   48  A    between atoms: _114  and  _116
REMARK   49  A    between atoms: _116  and  _117
REMARK   50  A    between atoms: _119  and  _121
REMARK   51  A    between atoms: _121  and  _122
REMARK   52  A    between atoms: _121  and  _124
REMARK   53  A    between atoms: _124  and  _125
REMARK   54  A    between atoms: _128  and  _130
REMARK   55  A    between atoms: _130  and  _131
REMARK   56  A    between atoms: _133  and  _135
REMARK   57  A    between atoms: _135  and  _136
REMARK   58  A    between atoms: _138  and  _140
REMARK   59  A    between atoms: _140  and  _141
REMARK   60  A    between atoms: _140  and  _143
REMARK   61  A    between atoms: _143  and  _144
REMARK   62  A    between atoms: _147  and  _149
REMARK   63  A    between atoms: _149  and  _150
REMARK   64  A    between atoms: _149  and  _152
REMARK   65  A    between atoms: _152  and  _153
REMARK   66  A    between atoms: _157  and  _158
REMARK   67  A    between atoms: _163  and  _165
REMARK   68  A    between atoms: _165  and  _166
REMARK   69  A    between atoms: _165  and  _168
REMARK   70  A    between atoms: _168  and  _169
REMARK   71  A    between atoms: _173  and  _174
REMARK   72  A    between atoms: _179  and  _181
REMARK   73  A    between atoms: _181  and  _182
REMARK   74  A    between atoms: _181  and  _184
REMARK   75  A    between atoms: _187  and  _189
REMARK   76  A    between atoms: _189  and  _190
REMARK   77  A    between atoms: _189  and  _192
REMARK   78  A    between atoms: _192  and  _193
REMARK   79  A    between atoms: _198  and  _200
REMARK   80  A    between atoms: _200  and  _201
REMARK   81  A    between atoms: _200  and  _203
REMARK   82  A    between atoms: _203  and  _204
REMARK   83  A    between atoms: _207  and  _209
REMARK   84  A    between atoms: _209  and  _210
REMARK   85  A    between atoms: _209  and  _212
REMARK   86  A    between atoms: _212  and  _213
REMARK   87  A    between atoms: _216  and  _218
REMARK   88  A    between atoms: _218  and  _219
REMARK   89  A    between atoms: _221  and  _223
REMARK   90  A    between atoms: _223  and  _224
REMARK   91  A    between atoms: _223  and  _226
REMARK   92  A    between atoms: _226  and  _227
REMARK   93  A    between atoms: _227  and  _228
REMARK   94  A    between atoms: _228  and  _229
REMARK   95  A    between atoms: _238  and  _240
REMARK   96  A    between atoms: _240  and  _241
REMARK   97  A    between atoms: _240  and  _243
REMARK   98  A    between atoms: _243  and  _244
REMARK   99  A    between atoms: _249  and  _251
REMARK  100  A    between atoms: _251  and  _252
REMARK  101  A    between atoms: _251  and  _254
REMARK  102  A    between atoms: _254  and  _255
REMARK  103  A    between atoms: _255  and  _256
REMARK  104  A    between atoms: _256  and  _257
REMARK  105  A    between atoms: _266  and  _268
REMARK  106  A    between atoms: _268  and  _269
REMARK  107  A    between atoms: _268  and  _271
REMARK  108  A    between atoms: _271  and  _272
REMARK  109  A    between atoms: _275  and  _277
REMARK  110  A    between atoms: _277  and  _278
REMARK  111  A    between atoms: _277  and  _280
REMARK  112  A    between atoms: _280  and  _281
REMARK  113  A    between atoms: _284  and  _286
REMARK  114  A    between atoms: _286  and  _287
REMARK  115  A    between atoms: _286  and  _289
REMARK  116  A    between atoms: _289  and  _290
REMARK  117  A    between atoms: _293  and  _295
REMARK  118  A    between atoms: _295  and  _296
REMARK  119  A    between atoms: _295  and  _298
REMARK  120  A    between atoms: _298  and  _299
REMARK  121  A    between atoms: _302  and  _304
REMARK  122  A    between atoms: _304  and  _305
REMARK  123  A    between atoms: _307  and  _309
REMARK  124  A    between atoms: _309  and  _310
REMARK  125  A    between atoms: _313  and  _315
REMARK  126  A    between atoms: _315  and  _316
REMARK  127  A    between atoms: _315  and  _318
REMARK  128  A    between atoms: _318  and  _319
REMARK  129  A    between atoms: _322  and  _324
REMARK  130  A    between atoms: _324  and  _325
REMARK  131  A    between atoms: _324  and  _327
REMARK  132  A    between atoms: _327  and  _328
REMARK  133  A    between atoms: _331  and  _333
REMARK  134  A    between atoms: _333  and  _334
REMARK  135  A    between atoms: _333  and  _336
REMARK  136  A    between atoms: _336  and  _337
REMARK  137  A    between atoms: _340  and  _342
REMARK  138  A    between atoms: _342  and  _343
REMARK  139  A    between atoms: _342  and  _345
REMARK  140  A    between atoms: _348  and  _350
REMARK  141  A    between atoms: _350  and  _351
REMARK  142  A    between atoms: _350  and  _353
REMARK  143  A    between atoms: _353  and  _354
REMARK  144  A    between atoms: _357  and  _359
REMARK  145  A    between atoms: _359  and  _360
REMARK  146  A    between atoms: _359  and  _362
REMARK  147  A    between atoms: _362  and  _363
REMARK  148  A    between atoms: _363  and  _364
REMARK  149  A    between atoms: _364  and  _365
REMARK  150  A    between atoms: _365  and  _366
REMARK  151  A    between atoms: _370  and  _372
REMARK  152  A    between atoms: _372  and  _373
REMARK  153  A    between atoms: _372  and  _375
REMARK  154  A    between atoms: _375  and  _376
REMARK  155  A    between atoms: _376  and  _377
REMARK  156  A    between atoms: _379  and  _381
REMARK  157  A    between atoms: _381  and  _382
REMARK  158  A    between atoms: _381  and  _384
REMARK  159  A    between atoms: _384  and  _385
REMARK  160  A    between atoms: _388  and  _390
REMARK  161  A    between atoms: _390  and  _391
REMARK  162  A    between atoms: _393  and  _395
REMARK  163  A    between atoms: _395  and  _396
REMARK  164  A    between atoms: _398  and  _400
REMARK  165  A    between atoms: _400  and  _401
REMARK  166  A    between atoms: _400  and  _403
REMARK  167  A    between atoms: _403  and  _404
REMARK  168  A    between atoms: _407  and  _409
REMARK  169  A    between atoms: _409  and  _410
REMARK  170  A    between atoms: _412  and  _414
REMARK  171  A    between atoms: _414  and  _415
REMARK  172  A    between atoms: _417  and  _419
REMARK  173  A    between atoms: _419  and  _420
REMARK  174  A    between atoms: _419  and  _422
REMARK  175  A    between atoms: _422  and  _423
REMARK  176  A    between atoms: _429  and  _431
REMARK  177  A    between atoms: _431  and  _432
REMARK  178  A    between atoms: _431  and  _434
REMARK  179  A    between atoms: _434  and  _435
REMARK  180  A    between atoms: _438  and  _440
REMARK  181  A    between atoms: _440  and  _441
REMARK  182  A    between atoms: _440  and  _443
REMARK  183  A    between atoms: _446  and  _448
REMARK  184  A    between atoms: _448  and  _449
REMARK  185  A    between atoms: _448  and  _451
REMARK  186  A    between atoms: _451  and  _452
REMARK  187  A    between atoms: _455  and  _457
REMARK  188  A    between atoms: _457  and  _458
REMARK  189  A    between atoms: _457  and  _460
REMARK  190  A    between atoms: _460  and  _461
REMARK  191  A    between atoms: _465  and  _466
REMARK  192  A    between atoms: _471  and  _473
REMARK  193  A    between atoms: _473  and  _474
REMARK  194  A    between atoms: _473  and  _476
REMARK  195  A    between atoms: _479  and  _481
REMARK  196  A    between atoms: _481  and  _482
REMARK  197  A    between atoms: _481  and  _484
REMARK  198  A    between atoms: _484  and  _485
REMARK  199  A    between atoms: _490  and  _492
REMARK  200  A    between atoms: _492  and  _493
REMARK  201  A    between atoms: _492  and  _495
REMARK  202  A    between atoms: _495  and  _496
REMARK  203  A    between atoms: _499  and  _501
REMARK  204  A    between atoms: _501  and  _502
REMARK  205  A    between atoms: _501  and  _504
REMARK  206  A    between atoms: _504  and  _505
REMARK  207  A    between atoms: _508  and  _510
REMARK  208  A    between atoms: _510  and  _511
REMARK  209  A    between atoms: _513  and  _515
REMARK  210  A    between atoms: _515  and  _516
REMARK  211  A    between atoms: _515  and  _518
REMARK  212  A    between atoms: _518  and  _519
REMARK  213  A    between atoms: _519  and  _520
REMARK  214  A    between atoms: _520  and  _521
REMARK  215  A    between atoms: _530  and  _532
REMARK  216  A    between atoms: _532  and  _533
REMARK  217  A    between atoms: _532  and  _535
REMARK  218  A    between atoms: _535  and  _536
REMARK                            x       y       z     vdW  Elec       q    Type
REMARK                         _______ _______ _______ _____ _____    ______ ____
ROOT
ATOM      1  C   ILE A   5      11.374  27.409  18.079  0.00  0.00    +0.241 C 
ATOM      2  N   ILE A   6      11.606  26.551  19.068  0.00  0.00    -0.297 N 
ATOM      3  H   ILE A   6      12.078  25.648  18.859  0.00  0.00    +0.150 HD
ATOM      4  O   ILE A   5      10.648  28.401  18.188  0.00  0.00    -0.273 OA
ENDROOT
BRANCH   2   5
ATOM      5  CA  ILE A   6      11.214  26.848  20.432  0.00  0.00    +0.149 C 
BRANCH   5   6
ATOM      6  C   ILE A   6      12.412  27.503  21.070  0.00  0.00    +0.241 C 
ATOM      7  N   GLY A   7      12.270  28.777  21.403  0.00  0.00    -0.295 N 
ATOM      8  H   GLY A   7      11.357  29.246  21.233  0.00  0.00    +0.150 HD
ATOM      9  O   ILE A   6      13.460  26.901  21.246  0.00  0.00    -0.273 OA
BRANCH   7  10
ATOM     10  CA  GLY A   7      13.353  29.536  21.998  0.00  0.00    +0.176 C 
BRANCH  10  11
ATOM     11  C   GLY A   7      13.278  29.582  23.503  0.00  0.00    +0.243 C 
ATOM     12  O   GLY A   7      12.405  28.985  24.141  0.00  0.00    -0.273 OA
ATOM     13  N   ARG A   8      14.236  30.293  24.082  0.00  0.00    -0.297 N 
ATOM     14  H   ARG A   8      14.868  30.866  23.488  0.00  0.00    +0.150 HD
BRANCH  13  15
ATOM     15  CA  ARG A   8      14.428  30.295  25.521  0.00  0.00    +0.149 C 
BRANCH  15  16
ATOM     16  C   ARG A   8      13.214  30.767  26.299  0.00  0.00    +0.241 C 
ATOM     17  O   ARG A   8      12.976  30.324  27.422  0.00  0.00    -0.273 OA
ATOM     18  N   ASN A   9      12.431  31.670  25.729  0.00  0.00    -0.298 N 
ATOM     19  H   ASN A   9      12.657  32.023  24.777  0.00  0.00    +0.150 HD
BRANCH  18  20
ATOM     20  CA  ASN A   9      11.252  32.173  26.428  0.00  0.00    +0.146 C 
BRANCH  20  21
ATOM     21  C   ASN A   9      10.288  31.067  26.845  0.00  0.00    +0.227 C 
ATOM     22  O   ASN A   9       9.608  31.191  27.861  0.00  0.00    -0.286 OA
ENDBRANCH  20  21
BRANCH  20  23
ATOM     23  CB  ASN A   9      10.541  33.256  25.615  0.00  0.00    +0.112 C 
BRANCH  23  24
ATOM     24  CG  ASN A   9       9.786  32.713  24.414  0.00  0.00    +0.222 C 
ATOM     25  ND2 ASN A   9       8.511  33.091  24.326  0.00  0.00    -0.329 N 
ATOM     26 HD21 ASN A   9       8.099  33.704  25.058  0.00  0.00    +0.145 HD
ATOM     27 HD22 ASN A   9       7.928  32.773  23.525  0.00  0.00    +0.145 HD
ATOM     28  OD1 ASN A   9      10.323  31.985  23.569  0.00  0.00    -0.275 OA
ENDBRANCH  23  24
ENDBRANCH  20  23
ENDBRANCH  18  20
ENDBRANCH  15  16
BRANCH  15  29
ATOM     29  CB  ARG A   8      15.651  31.119  25.901  0.00  0.00    +0.033 C 
BRANCH  29  30
ATOM     30  CG  ARG A   8      16.971  30.483  25.480  0.00  0.00    +0.045 C 
BRANCH  30  31
ATOM     31  CD  ARG A   8      18.193  31.235  26.034  0.00  0.00    +0.174 C 
BRANCH  31  32
ATOM     32  NE  ARG A   8      18.242  32.615  25.560  0.00  0.00    -0.265 N 
ATOM     33  CZ  ARG A   8      17.856  33.681  26.256  0.00  0.00    +0.342 C 
ATOM     34  NH2 ARG A   8      17.382  33.584  27.491  0.00  0.00    -0.292 N 
ATOM     35 HH21 ARG A   8      17.090  34.440  28.005  0.00  0.00    +0.255 HD
ATOM     36 HH22 ARG A   8      17.303  32.652  27.946  0.00  0.00    +0.255 HD
ATOM     37  NH1 ARG A   8      17.951  34.879  25.698  0.00  0.00    -0.292 N 
ATOM     38 HH11 ARG A   8      17.654  35.724  26.227  0.00  0.00    +0.255 HD
ATOM     39 HH12 ARG A   8      18.322  34.974  24.731  0.00  0.00    +0.255 HD
ATOM     40  HE  ARG A   8      18.608  32.778  24.600  0.00  0.00    +0.259 HD
ENDBRANCH  31  32
ENDBRANCH  30  31
ENDBRANCH  29  30
ENDBRANCH  15  29
ENDBRANCH  13  15
ENDBRANCH  10  11
ENDBRANCH   7  10
ENDBRANCH   5   6
BRANCH   5  41
ATOM     41  CB  ILE A   6      10.814  25.597  21.224  0.00  0.00    +0.027 C 
ATOM     42  CG2 ILE A   6      10.423  25.981  22.645  0.00  0.00    +0.002 C 
BRANCH  41  43
ATOM     43  CG1 ILE A   6       9.675  24.865  20.518  0.00  0.00    +0.002 C 
ATOM     44  CD1 ILE A   6       8.467  25.716  20.253  0.00  0.00    +0.000 C 
ENDBRANCH  41  43
ENDBRANCH   5  41
ENDBRANCH   2   5
BRANCH   1  45
ATOM     45  CA  ILE A   5      12.019  27.087  16.737  0.00  0.00    +0.149 C 
BRANCH  45  47
ATOM     46  C   ASN A   4      10.920  25.867  14.896  0.00  0.00    +0.241 C 
ATOM     47  N   ILE A   5      10.992  26.926  15.706  0.00  0.00    -0.297 N 
ATOM     48  H   ILE A   5      10.280  27.677  15.599  0.00  0.00    +0.150 HD
ATOM     49  O   ASN A   4      11.635  24.865  15.016  0.00  0.00    -0.273 OA
BRANCH  46  50
ATOM     50  CA  ASN A   4       9.895  25.933  13.766  0.00  0.00    +0.158 C 
BRANCH  50  52
ATOM     51  C   VAL A   3      11.403  26.264  11.885  0.00  0.00    +0.241 C 
ATOM     52  N   ASN A   4      10.536  25.487  12.531  0.00  0.00    -0.297 N 
ATOM     53  H   ASN A   4      10.311  24.546  12.150  0.00  0.00    +0.150 HD
ATOM     54  O   VAL A   3      11.604  27.449  12.210  0.00  0.00    -0.273 OA
BRANCH  51  55
ATOM     55  CA  VAL A   3      12.155  25.643  10.724  0.00  0.00    +0.149 C 
BRANCH  55  57
ATOM     56  C   PRO A   2      12.306  26.397   8.418  0.00  0.00    +0.241 C 
ATOM     57  N   VAL A   3      12.337  26.663   9.714  0.00  0.00    -0.297 N 
ATOM     58  H   VAL A   3      12.499  27.644  10.019  0.00  0.00    +0.150 HD
ATOM     59  O   PRO A   2      12.085  25.269   7.974  0.00  0.00    -0.273 OA
BRANCH  56  66
ATOM     60  C   THR A   1      11.403  29.465   8.402  0.00  0.00    +0.244 C 
ATOM     61  O   THR A   1      10.336  28.919   8.166  0.00  0.00    -0.273 OA
ATOM     62  N   PRO A   2      12.579  28.896   8.086  0.00  0.00    -0.272 N 
ATOM     63  CD  PRO A   2      13.925  29.479   8.203  0.00  0.00    +0.094 C 
ATOM     64  CG  PRO A   2      14.833  28.377   7.717  0.00  0.00    +0.024 C 
ATOM     65  CB  PRO A   2      14.023  27.440   6.938  0.00  0.00    +0.031 C 
ATOM     66  CA  PRO A   2      12.592  27.564   7.472  0.00  0.00    +0.152 C 
BRANCH  60  67
ATOM     67  CA  THR A   1      11.440  30.828   9.088  0.00  0.00    +0.172 C 
BRANCH  67  68
ATOM     68  N   THR A   1      10.324  31.634   8.644  0.00  0.00    -0.236 NA
ATOM     69  H   THR A   1       9.481  31.711   9.248  0.00  0.00    +0.142 HD
ENDBRANCH  67  68
BRANCH  67  70
ATOM     70  CB  THR A   1      11.408  30.641  10.614  0.00  0.00    +0.135 C 
ATOM     71  CG2 THR A   1      10.099  29.987  11.082  0.00  0.00    +0.034 C 
BRANCH  70  72
ATOM     72  OG1 THR A   1      12.489  29.796  11.005  0.00  0.00    -0.383 OA
ATOM     73  HG1 THR A   1      12.397  28.917  10.560  0.00  0.00    +0.210 HD
ENDBRANCH  70  72
ENDBRANCH  67  70
ENDBRANCH  60  67
ENDBRANCH  56  66
ENDBRANCH  55  57
BRANCH  55  74
ATOM     74  CB  VAL A   3      13.522  25.116  11.222  0.00  0.00    +0.027 C 
ATOM     75  CG2 VAL A   3      14.350  26.247  11.821  0.00  0.00    +0.002 C 
ATOM     76  CG1 VAL A   3      14.264  24.390  10.110  0.00  0.00    +0.002 C 
ENDBRANCH  55  74
ENDBRANCH  51  55
ENDBRANCH  50  52
BRANCH  50  77
ATOM     77  CB  ASN A   4       8.716  25.018  14.147  0.00  0.00    +0.114 C 
BRANCH  77  78
ATOM     78  CG  ASN A   4       7.564  25.021  13.151  0.00  0.00    +0.222 C 
ATOM     79  ND2 ASN A   4       6.996  26.174  12.908  0.00  0.00    -0.329 N 
ATOM     80 HD21 ASN A   4       7.378  27.042  13.334  0.00  0.00    +0.145 HD
ATOM     81 HD22 ASN A   4       6.162  26.223  12.288  0.00  0.00    +0.145 HD
ATOM     82  OD1 ASN A   4       7.150  23.961  12.670  0.00  0.00    -0.275 OA
ENDBRANCH  77  78
ENDBRANCH  50  77
ENDBRANCH  46  50
ENDBRANCH  45  47
BRANCH  45  83
ATOM     83  CB  ILE A   5      12.956  28.233  16.338  0.00  0.00    +0.027 C 
ATOM     84  CG2 ILE A   5      13.874  28.656  17.497  0.00  0.00    +0.002 C 
BRANCH  83  85
ATOM     85  CG1 ILE A   5      13.767  27.854  15.098  0.00  0.00    +0.002 C 
ATOM     86  CD1 ILE A   5      14.458  29.029  14.444  0.00  0.00    +0.000 C 
ENDBRANCH  83  85
ENDBRANCH  45  83
ENDBRANCH   1  45
TORSDOF 32
REMARK  Name = ../refined-set-2016/3o9e/3o9e_pocket.pdb
REMARK  218 active torsions:
REMARK  status: ('A' for Active; 'I' for Inactive)
REMARK    1  A    between atoms: _1  and  _3
REMARK    2  A    between atoms: _3  and  _4
REMARK    3  A    between atoms: _3  and  _6
REMARK    4  A    between atoms: _6  and  _7
REMARK    5  A    between atoms: _7  and  _8
REMARK    6  A    between atoms: _8  and  _9
REMARK    7  A    between atoms: _18  and  _20
REMARK    8  A    between atoms: _20  and  _21
REMARK    9  A    between atoms: _20  and  _23
REMARK   10  A    between atoms: _23  and  _24
REMARK   11  A    between atoms: _27  and  _29
REMARK   12  A    between atoms: _29  and  _30
REMARK   13  A    between atoms: _29  and  _32
REMARK   14  A    between atoms: _32  and  _33
REMARK   15  A    between atoms: _36  and  _38
REMARK   16  A    between atoms: _38  and  _39
REMARK   17  A    between atoms: _38  and  _41
REMARK   18  A    between atoms: _41  and  _42
REMARK   19  A    between atoms: _45  and  _47
REMARK   20  A    between atoms: _47  and  _48
REMARK   21  A    between atoms: _47  and  _50
REMARK   22  A    between atoms: _50  and  _51
REMARK   23  A    between atoms: _54  and  _56
REMARK   24  A    between atoms: _56  and  _57
REMARK   25  A    between atoms: _59  and  _61
REMARK   26  A    between atoms: _61  and  _62
REMARK   27  A    between atoms: _65  and  _67
REMARK   28  A    between atoms: _67  and  _68
REMARK   29  A    between atoms: _67  and  _70
REMARK   30  A    between atoms: _70  and  _71
REMARK   31  A    between atoms: _74  and  _76
REMARK   32  A    between atoms: _76  and  _77
REMARK   33  A    between atoms: _76  and  _79
REMARK   34  A    between atoms: _79  and  _80
REMARK   35  A    between atoms: _83  and  _85
REMARK   36  A    between atoms: _85  and  _86
REMARK   37  A    between atoms: _85  and  _88
REMARK   38  A    between atoms: _88  and  _89
REMARK   39  A    between atoms: _92  and  _94
REMARK   40  A    between atoms: _94  and  _95
REMARK   41  A    between atoms: _94  and  _97
REMARK   42  A    between atoms: _100  and  _102
REMARK   43  A    between atoms: _102  and  _103
REMARK   44  A    between atoms: _102  and  _105
REMARK   45  A    between atoms: _105  and  _106
REMARK   46  A    between atoms: _109  and  _111
REMARK   47  A    between atoms: _111  and  _112
REMARK   48  A    between atoms: _114  and  _116
REMARK   49  A    between atoms: _116  and  _117
REMARK   50  A    between atoms: _119  and  _121
REMARK   51  A    between atoms: _121  and  _122
REMARK   52  A    between atoms: _121  and  _124
REMARK   53  A    between atoms: _124  and  _125
REMARK   54  A    between atoms: _128  and  _130
REMARK   55  A    between atoms: _130  and  _131
REMARK   56  A    between atoms: _133  and  _135
REMARK   57  A    between atoms: _135  and  _136
REMARK   58  A    between atoms: _138  and  _140
REMARK   59  A    between atoms: _140  and  _141
REMARK   60  A    between atoms: _140  and  _143
REMARK   61  A    between atoms: _143  and  _144
REMARK   62  A    between atoms: _147  and  _149
REMARK   63  A    between atoms: _149  and  _150
REMARK   64  A    between atoms: _149  and  _152
REMARK   65  A    between atoms: _152  and  _153
REMARK   66  A    between atoms: _157  and  _158
REMARK   67  A    between atoms: _163  and  _165
REMARK   68  A    between atoms: _165  and  _166
REMARK   69  A    between atoms: _165  and  _168
REMARK   70  A    between atoms: _168  and  _169
REMARK   71  A    between atoms: _173  and  _174
REMARK   72  A    between atoms: _179  and  _181
REMARK   73  A    between atoms: _181  and  _182
REMARK   74  A    between atoms: _181  and  _184
REMARK   75  A    between atoms: _187  and  _189
REMARK   76  A    between atoms: _189  and  _190
REMARK   77  A    between atoms: _189  and  _192
REMARK   78  A    between atoms: _192  and  _193
REMARK   79  A    between atoms: _198  and  _200
REMARK   80  A    between atoms: _200  and  _201
REMARK   81  A    between atoms: _200  and  _203
REMARK   82  A    between atoms: _203  and  _204
REMARK   83  A    between atoms: _207  and  _209
REMARK   84  A    between atoms: _209  and  _210
REMARK   85  A    between atoms: _209  and  _212
REMARK   86  A    between atoms: _212  and  _213
REMARK   87  A    between atoms: _216  and  _218
REMARK   88  A    between atoms: _218  and  _219
REMARK   89  A    between atoms: _221  and  _223
REMARK   90  A    between atoms: _223  and  _224
REMARK   91  A    between atoms: _223  and  _226
REMARK   92  A    between atoms: _226  and  _227
REMARK   93  A    between atoms: _227  and  _228
REMARK   94  A    between atoms: _228  and  _229
REMARK   95  A    between atoms: _238  and  _240
REMARK   96  A    between atoms: _240  and  _241
REMARK   97  A    between atoms: _240  and  _243
REMARK   98  A    between atoms: _243  and  _244
REMARK   99  A    between atoms: _249  and  _251
REMARK  100  A    between atoms: _251  and  _252
REMARK  101  A    between atoms: _251  and  _254
REMARK  102  A    between atoms: _254  and  _255
REMARK  103  A    between atoms: _255  and  _256
REMARK  104  A    between atoms: _256  and  _257
REMARK  105  A    between atoms: _266  and  _268
REMARK  106  A    between atoms: _268  and  _269
REMARK  107  A    between atoms: _268  and  _271
REMARK  108  A    between atoms: _271  and  _272
REMARK  109  A    between atoms: _275  and  _277
REMARK  110  A    between atoms: _277  and  _278
REMARK  111  A    between atoms: _277  and  _280
REMARK  112  A    between atoms: _280  and  _281
REMARK  113  A    between atoms: _284  and  _286
REMARK  114  A    between atoms: _286  and  _287
REMARK  115  A    between atoms: _286  and  _289
REMARK  116  A    between atoms: _289  and  _290
REMARK  117  A    between atoms: _293  and  _295
REMARK  118  A    between atoms: _295  and  _296
REMARK  119  A    between atoms: _295  and  _298
REMARK  120  A    between atoms: _298  and  _299
REMARK  121  A    between atoms: _302  and  _304
REMARK  122  A    between atoms: _304  and  _305
REMARK  123  A    between atoms: _307  and  _309
REMARK  124  A    between atoms: _309  and  _310
REMARK  125  A    between atoms: _313  and  _315
REMARK  126  A    between atoms: _315  and  _316
REMARK  127  A    between atoms: _315  and  _318
REMARK  128  A    between atoms: _318  and  _319
REMARK  129  A    between atoms: _322  and  _324
REMARK  130  A    between atoms: _324  and  _325
REMARK  131  A    between atoms: _324  and  _327
REMARK  132  A    between atoms: _327  and  _328
REMARK  133  A    between atoms: _331  and  _333
REMARK  134  A    between atoms: _333  and  _334
REMARK  135  A    between atoms: _333  and  _336
REMARK  136  A    between atoms: _336  and  _337
REMARK  137  A    between atoms: _340  and  _342
REMARK  138  A    between atoms: _342  and  _343
REMARK  139  A    between atoms: _342  and  _345
REMARK  140  A    between atoms: _348  and  _350
REMARK  141  A    between atoms: _350  and  _351
REMARK  142  A    between atoms: _350  and  _353
REMARK  143  A    between atoms: _353  and  _354
REMARK  144  A    between atoms: _357  and  _359
REMARK  145  A    between atoms: _359  and  _360
REMARK  146  A    between atoms: _359  and  _362
REMARK  147  A    between atoms: _362  and  _363
REMARK  148  A    between atoms: _363  and  _364
REMARK  149  A    between atoms: _364  and  _365
REMARK  150  A    between atoms: _365  and  _366
REMARK  151  A    between atoms: _370  and  _372
REMARK  152  A    between atoms: _372  and  _373
REMARK  153  A    between atoms: _372  and  _375
REMARK  154  A    between atoms: _375  and  _376
REMARK  155  A    between atoms: _376  and  _377
REMARK  156  A    between atoms: _379  and  _381
REMARK  157  A    between atoms: _381  and  _382
REMARK  158  A    between atoms: _381  and  _384
REMARK  159  A    between atoms: _384  and  _385
REMARK  160  A    between atoms: _388  and  _390
REMARK  161  A    between atoms: _390  and  _391
REMARK  162  A    between atoms: _393  and  _395
REMARK  163  A    between atoms: _395  and  _396
REMARK  164  A    between atoms: _398  and  _400
REMARK  165  A    between atoms: _400  and  _401
REMARK  166  A    between atoms: _400  and  _403
REMARK  167  A    between atoms: _403  and  _404
REMARK  168  A    between atoms: _407  and  _409
REMARK  169  A    between atoms: _409  and  _410
REMARK  170  A    between atoms: _412  and  _414
REMARK  171  A    between atoms: _414  and  _415
REMARK  172  A    between atoms: _417  and  _419
REMARK  173  A    between atoms: _419  and  _420
REMARK  174  A    between atoms: _419  and  _422
REMARK  175  A    between atoms: _422  and  _423
REMARK  176  A    between atoms: _429  and  _431
REMARK  177  A    between atoms: _431  and  _432
REMARK  178  A    between atoms: _431  and  _434
REMARK  179  A    between atoms: _434  and  _435
REMARK  180  A    between atoms: _438  and  _440
REMARK  181  A    between atoms: _440  and  _441
REMARK  182  A    between atoms: _440  and  _443
REMARK  183  A    between atoms: _446  and  _448
REMARK  184  A    between atoms: _448  and  _449
REMARK  185  A    between atoms: _448  and  _451
REMARK  186  A    between atoms: _451  and  _452
REMARK  187  A    between atoms: _455  and  _457
REMARK  188  A    between atoms: _457  and  _458
REMARK  189  A    between atoms: _457  and  _460
REMARK  190  A    between atoms: _460  and  _461
REMARK  191  A    between atoms: _465  and  _466
REMARK  192  A    between atoms: _471  and  _473
REMARK  193  A    between atoms: _473  and  _474
REMARK  194  A    between atoms: _473  and  _476
REMARK  195  A    between atoms: _479  and  _481
REMARK  196  A    between atoms: _481  and  _482
REMARK  197  A    between atoms: _481  and  _484
REMARK  198  A    between atoms: _484  and  _485
REMARK  199  A    between atoms: _490  and  _492
REMARK  200  A    between atoms: _492  and  _493
REMARK  201  A    between atoms: _492  and  _495
REMARK  202  A    between atoms: _495  and  _496
REMARK  203  A    between atoms: _499  and  _501
REMARK  204  A    between atoms: _501  and  _502
REMARK  205  A    between atoms: _501  and  _504
REMARK  206  A    between atoms: _504  and  _505
REMARK  207  A    between atoms: _508  and  _510
REMARK  208  A    between atoms: _510  and  _511
REMARK  209  A    between atoms: _513  and  _515
REMARK  210  A    between atoms: _515  and  _516
REMARK  211  A    between atoms: _515  and  _518
REMARK  212  A    between atoms: _518  and  _519
REMARK  213  A    between atoms: _519  and  _520
REMARK  214  A    between atoms: _520  and  _521
REMARK  215  A    between atoms: _530  and  _532
REMARK  216  A    between atoms: _532  and  _533
REMARK  217  A    between atoms: _532  and  _535
REMARK  218  A    between atoms: _535  and  _536
REMARK                            x       y       z     vdW  Elec       q    Type
REMARK                         _______ _______ _______ _____ _____    ______ ____
ROOT
ATOM      1  O   HOH     1      20.008  21.472  15.628  0.00  0.00    +0.000 OA
ENDROOT
TORSDOF 0
REMARK  Name = ../refined-set-2016/3o9e/3o9e_pocket.pdb
REMARK  218 active torsions:
REMARK  status: ('A' for Active; 'I' for Inactive)
REMARK    1  A    between atoms: _1  and  _3
REMARK    2  A    between atoms: _3  and  _4
REMARK    3  A    between atoms: _3  and  _6
REMARK    4  A    between atoms: _6  and  _7
REMARK    5  A    between atoms: _7  and  _8
REMARK    6  A    between atoms: _8  and  _9
REMARK    7  A    between atoms: _18  and  _20
REMARK    8  A    between atoms: _20  and  _21
REMARK    9  A    between atoms: _20  and  _23
REMARK   10  A    between atoms: _23  and  _24
REMARK   11  A    between atoms: _27  and  _29
REMARK   12  A    between atoms: _29  and  _30
REMARK   13  A    between atoms: _29  and  _32
REMARK   14  A    between atoms: _32  and  _33
REMARK   15  A    between atoms: _36  and  _38
REMARK   16  A    between atoms: _38  and  _39
REMARK   17  A    between atoms: _38  and  _41
REMARK   18  A    between atoms: _41  and  _42
REMARK   19  A    between atoms: _45  and  _47
REMARK   20  A    between atoms: _47  and  _48
REMARK   21  A    between atoms: _47  and  _50
REMARK   22  A    between atoms: _50  and  _51
REMARK   23  A    between atoms: _54  and  _56
REMARK   24  A    between atoms: _56  and  _57
REMARK   25  A    between atoms: _59  and  _61
REMARK   26  A    between atoms: _61  and  _62
REMARK   27  A    between atoms: _65  and  _67
REMARK   28  A    between atoms: _67  and  _68
REMARK   29  A    between atoms: _67  and  _70
REMARK   30  A    between atoms: _70  and  _71
REMARK   31  A    between atoms: _74  and  _76
REMARK   32  A    between atoms: _76  and  _77
REMARK   33  A    between atoms: _76  and  _79
REMARK   34  A    between atoms: _79  and  _80
REMARK   35  A    between atoms: _83  and  _85
REMARK   36  A    between atoms: _85  and  _86
REMARK   37  A    between atoms: _85  and  _88
REMARK   38  A    between atoms: _88  and  _89
REMARK   39  A    between atoms: _92  and  _94
REMARK   40  A    between atoms: _94  and  _95
REMARK   41  A    between atoms: _94  and  _97
REMARK   42  A    between atoms: _100  and  _102
REMARK   43  A    between atoms: _102  and  _103
REMARK   44  A    between atoms: _102  and  _105
REMARK   45  A    between atoms: _105  and  _106
REMARK   46  A    between atoms: _109  and  _111
REMARK   47  A    between atoms: _111  and  _112
REMARK   48  A    between atoms: _114  and  _116
REMARK   49  A    between atoms: _116  and  _117
REMARK   50  A    between atoms: _119  and  _121
REMARK   51  A    between atoms: _121  and  _122
REMARK   52  A    between atoms: _121  and  _124
REMARK   53  A    between atoms: _124  and  _125
REMARK   54  A    between atoms: _128  and  _130
REMARK   55  A    between atoms: _130  and  _131
REMARK   56  A    between atoms: _133  and  _135
REMARK   57  A    between atoms: _135  and  _136
REMARK   58  A    between atoms: _138  and  _140
REMARK   59  A    between atoms: _140  and  _141
REMARK   60  A    between atoms: _140  and  _143
REMARK   61  A    between atoms: _143  and  _144
REMARK   62  A    between atoms: _147  and  _149
REMARK   63  A    between atoms: _149  and  _150
REMARK   64  A    between atoms: _149  and  _152
REMARK   65  A    between atoms: _152  and  _153
REMARK   66  A    between atoms: _157  and  _158
REMARK   67  A    between atoms: _163  and  _165
REMARK   68  A    between atoms: _165  and  _166
REMARK   69  A    between atoms: _165  and  _168
REMARK   70  A    between atoms: _168  and  _169
REMARK   71  A    between atoms: _173  and  _174
REMARK   72  A    between atoms: _179  and  _181
REMARK   73  A    between atoms: _181  and  _182
REMARK   74  A    between atoms: _181  and  _184
REMARK   75  A    between atoms: _187  and  _189
REMARK   76  A    between atoms: _189  and  _190
REMARK   77  A    between atoms: _189  and  _192
REMARK   78  A    between atoms: _192  and  _193
REMARK   79  A    between atoms: _198  and  _200
REMARK   80  A    between atoms: _200  and  _201
REMARK   81  A    between atoms: _200  and  _203
REMARK   82  A    between atoms: _203  and  _204
REMARK   83  A    between atoms: _207  and  _209
REMARK   84  A    between atoms: _209  and  _210
REMARK   85  A    between atoms: _209  and  _212
REMARK   86  A    between atoms: _212  and  _213
REMARK   87  A    between atoms: _216  and  _218
REMARK   88  A    between atoms: _218  and  _219
REMARK   89  A    between atoms: _221  and  _223
REMARK   90  A    between atoms: _223  and  _224
REMARK   91  A    between atoms: _223  and  _226
REMARK   92  A    between atoms: _226  and  _227
REMARK   93  A    between atoms: _227  and  _228
REMARK   94  A    between atoms: _228  and  _229
REMARK   95  A    between atoms: _238  and  _240
REMARK   96  A    between atoms: _240  and  _241
REMARK   97  A    between atoms: _240  and  _243
REMARK   98  A    between atoms: _243  and  _244
REMARK   99  A    between atoms: _249  and  _251
REMARK  100  A    between atoms: _251  and  _252
REMARK  101  A    between atoms: _251  and  _254
REMARK  102  A    between atoms: _254  and  _255
REMARK  103  A    between atoms: _255  and  _256
REMARK  104  A    between atoms: _256  and  _257
REMARK  105  A    between atoms: _266  and  _268
REMARK  106  A    between atoms: _268  and  _269
REMARK  107  A    between atoms: _268  and  _271
REMARK  108  A    between atoms: _271  and  _272
REMARK  109  A    between atoms: _275  and  _277
REMARK  110  A    between atoms: _277  and  _278
REMARK  111  A    between atoms: _277  and  _280
REMARK  112  A    between atoms: _280  and  _281
REMARK  113  A    between atoms: _284  and  _286
REMARK  114  A    between atoms: _286  and  _287
REMARK  115  A    between atoms: _286  and  _289
REMARK  116  A    between atoms: _289  and  _290
REMARK  117  A    between atoms: _293  and  _295
REMARK  118  A    between atoms: _295  and  _296
REMARK  119  A    between atoms: _295  and  _298
REMARK  120  A    between atoms: _298  and  _299
REMARK  121  A    between atoms: _302  and  _304
REMARK  122  A    between atoms: _304  and  _305
REMARK  123  A    between atoms: _307  and  _309
REMARK  124  A    between atoms: _309  and  _310
REMARK  125  A    between atoms: _313  and  _315
REMARK  126  A    between atoms: _315  and  _316
REMARK  127  A    between atoms: _315  and  _318
REMARK  128  A    between atoms: _318  and  _319
REMARK  129  A    between atoms: _322  and  _324
REMARK  130  A    between atoms: _324  and  _325
REMARK  131  A    between atoms: _324  and  _327
REMARK  132  A    between atoms: _327  and  _328
REMARK  133  A    between atoms: _331  and  _333
REMARK  134  A    between atoms: _333  and  _334
REMARK  135  A    between atoms: _333  and  _336
REMARK  136  A    between atoms: _336  and  _337
REMARK  137  A    between atoms: _340  and  _342
REMARK  138  A    between atoms: _342  and  _343
REMARK  139  A    between atoms: _342  and  _345
REMARK  140  A    between atoms: _348  and  _350
REMARK  141  A    between atoms: _350  and  _351
REMARK  142  A    between atoms: _350  and  _353
REMARK  143  A    between atoms: _353  and  _354
REMARK  144  A    between atoms: _357  and  _359
REMARK  145  A    between atoms: _359  and  _360
REMARK  146  A    between atoms: _359  and  _362
REMARK  147  A    between atoms: _362  and  _363
REMARK  148  A    between atoms: _363  and  _364
REMARK  149  A    between atoms: _364  and  _365
REMARK  150  A    between atoms: _365  and  _366
REMARK  151  A    between atoms: _370  and  _372
REMARK  152  A    between atoms: _372  and  _373
REMARK  153  A    between atoms: _372  and  _375
REMARK  154  A    between atoms: _375  and  _376
REMARK  155  A    between atoms: _376  and  _377
REMARK  156  A    between atoms: _379  and  _381
REMARK  157  A    between atoms: _381  and  _382
REMARK  158  A    between atoms: _381  and  _384
REMARK  159  A    between atoms: _384  and  _385
REMARK  160  A    between atoms: _388  and  _390
REMARK  161  A    between atoms: _390  and  _391
REMARK  162  A    between atoms: _393  and  _395
REMARK  163  A    between atoms: _395  and  _396
REMARK  164  A    between atoms: _398  and  _400
REMARK  165  A    between atoms: _400  and  _401
REMARK  166  A    between atoms: _400  and  _403
REMARK  167  A    between atoms: _403  and  _404
REMARK  168  A    between atoms: _407  and  _409
REMARK  169  A    between atoms: _409  and  _410
REMARK  170  A    between atoms: _412  and  _414
REMARK  171  A    between atoms: _414  and  _415
REMARK  172  A    between atoms: _417  and  _419
REMARK  173  A    between atoms: _419  and  _420
REMARK  174  A    between atoms: _419  and  _422
REMARK  175  A    between atoms: _422  and  _423
REMARK  176  A    between atoms: _429  and  _431
REMARK  177  A    between atoms: _431  and  _432
REMARK  178  A    between atoms: _431  and  _434
REMARK  179  A    between atoms: _434  and  _435
REMARK  180  A    between atoms: _438  and  _440
REMARK  181  A    between atoms: _440  and  _441
REMARK  182  A    between atoms: _440  and  _443
REMARK  183  A    between atoms: _446  and  _448
REMARK  184  A    between atoms: _448  and  _449
REMARK  185  A    between atoms: _448  and  _451
REMARK  186  A    between atoms: _451  and  _452
REMARK  187  A    between atoms: _455  and  _457
REMARK  188  A    between atoms: _457  and  _458
REMARK  189  A    between atoms: _457  and  _460
REMARK  190  A    between atoms: _460  and  _461
REMARK  191  A    between atoms: _465  and  _466
REMARK  192  A    between atoms: _471  and  _473
REMARK  193  A    between atoms: _473  and  _474
REMARK  194  A    between atoms: _473  and  _476
REMARK  195  A    between atoms: _479  and  _481
REMARK  196  A    between atoms: _481  and  _482
REMARK  197  A    between atoms: _481  and  _484
REMARK  198  A    between atoms: _484  and  _485
REMARK  199  A    between atoms: _490  and  _492
REMARK  200  A    between atoms: _492  and  _493
REMARK  201  A    between atoms: _492  and  _495
REMARK  202  A    between atoms: _495  and  _496
REMARK  203  A    between atoms: _499  and  _501
REMARK  204  A    between atoms: _501  and  _502
REMARK  205  A    between atoms: _501  and  _504
REMARK  206  A    between atoms: _504  and  _505
REMARK  207  A    between atoms: _508  and  _510
REMARK  208  A    between atoms: _510  and  _511
REMARK  209  A    between atoms: _513  and  _515
REMARK  210  A    between atoms: _515  and  _516
REMARK  211  A    between atoms: _515  and  _518
REMARK  212  A    between atoms: _518  and  _519
REMARK  213  A    between atoms: _519  and  _520
REMARK  214  A    between atoms: _520  and  _521
REMARK  215  A    between atoms: _530  and  _532
REMARK  216  A    between atoms: _532  and  _533
REMARK  217  A    between atoms: _532  and  _535
REMARK  218  A    between atoms: _535  and  _536
REMARK                            x       y       z     vdW  Elec       q    Type
REMARK                         _______ _______ _______ _____ _____    ______ ____
ROOT
ATOM      1  O   HOH     1      19.508  22.848  13.278  0.00  0.00    +0.000 OA
ENDROOT
TORSDOF 0
REMARK  Name = ../refined-set-2016/3o9e/3o9e_pocket.pdb
REMARK  218 active torsions:
REMARK  status: ('A' for Active; 'I' for Inactive)
REMARK    1  A    between atoms: _1  and  _3
REMARK    2  A    between atoms: _3  and  _4
REMARK    3  A    between atoms: _3  and  _6
REMARK    4  A    between atoms: _6  and  _7
REMARK    5  A    between atoms: _7  and  _8
REMARK    6  A    between atoms: _8  and  _9
REMARK    7  A    between atoms: _18  and  _20
REMARK    8  A    between atoms: _20  and  _21
REMARK    9  A    between atoms: _20  and  _23
REMARK   10  A    between atoms: _23  and  _24
REMARK   11  A    between atoms: _27  and  _29
REMARK   12  A    between atoms: _29  and  _30
REMARK   13  A    between atoms: _29  and  _32
REMARK   14  A    between atoms: _32  and  _33
REMARK   15  A    between atoms: _36  and  _38
REMARK   16  A    between atoms: _38  and  _39
REMARK   17  A    between atoms: _38  and  _41
REMARK   18  A    between atoms: _41  and  _42
REMARK   19  A    between atoms: _45  and  _47
REMARK   20  A    between atoms: _47  and  _48
REMARK   21  A    between atoms: _47  and  _50
REMARK   22  A    between atoms: _50  and  _51
REMARK   23  A    between atoms: _54  and  _56
REMARK   24  A    between atoms: _56  and  _57
REMARK   25  A    between atoms: _59  and  _61
REMARK   26  A    between atoms: _61  and  _62
REMARK   27  A    between atoms: _65  and  _67
REMARK   28  A    between atoms: _67  and  _68
REMARK   29  A    between atoms: _67  and  _70
REMARK   30  A    between atoms: _70  and  _71
REMARK   31  A    between atoms: _74  and  _76
REMARK   32  A    between atoms: _76  and  _77
REMARK   33  A    between atoms: _76  and  _79
REMARK   34  A    between atoms: _79  and  _80
REMARK   35  A    between atoms: _83  and  _85
REMARK   36  A    between atoms: _85  and  _86
REMARK   37  A    between atoms: _85  and  _88
REMARK   38  A    between atoms: _88  and  _89
REMARK   39  A    between atoms: _92  and  _94
REMARK   40  A    between atoms: _94  and  _95
REMARK   41  A    between atoms: _94  and  _97
REMARK   42  A    between atoms: _100  and  _102
REMARK   43  A    between atoms: _102  and  _103
REMARK   44  A    between atoms: _102  and  _105
REMARK   45  A    between atoms: _105  and  _106
REMARK   46  A    between atoms: _109  and  _111
REMARK   47  A    between atoms: _111  and  _112
REMARK   48  A    between atoms: _114  and  _116
REMARK   49  A    between atoms: _116  and  _117
REMARK   50  A    between atoms: _119  and  _121
REMARK   51  A    between atoms: _121  and  _122
REMARK   52  A    between atoms: _121  and  _124
REMARK   53  A    between atoms: _124  and  _125
REMARK   54  A    between atoms: _128  and  _130
REMARK   55  A    between atoms: _130  and  _131
REMARK   56  A    between atoms: _133  and  _135
REMARK   57  A    between atoms: _135  and  _136
REMARK   58  A    between atoms: _138  and  _140
REMARK   59  A    between atoms: _140  and  _141
REMARK   60  A    between atoms: _140  and  _143
REMARK   61  A    between atoms: _143  and  _144
REMARK   62  A    between atoms: _147  and  _149
REMARK   63  A    between atoms: _149  and  _150
REMARK   64  A    between atoms: _149  and  _152
REMARK   65  A    between atoms: _152  and  _153
REMARK   66  A    between atoms: _157  and  _158
REMARK   67  A    between atoms: _163  and  _165
REMARK   68  A    between atoms: _165  and  _166
REMARK   69  A    between atoms: _165  and  _168
REMARK   70  A    between atoms: _168  and  _169
REMARK   71  A    between atoms: _173  and  _174
REMARK   72  A    between atoms: _179  and  _181
REMARK   73  A    between atoms: _181  and  _182
REMARK   74  A    between atoms: _181  and  _184
REMARK   75  A    between atoms: _187  and  _189
REMARK   76  A    between atoms: _189  and  _190
REMARK   77  A    between atoms: _189  and  _192
REMARK   78  A    between atoms: _192  and  _193
REMARK   79  A    between atoms: _198  and  _200
REMARK   80  A    between atoms: _200  and  _201
REMARK   81  A    between atoms: _200  and  _203
REMARK   82  A    between atoms: _203  and  _204
REMARK   83  A    between atoms: _207  and  _209
REMARK   84  A    between atoms: _209  and  _210
REMARK   85  A    between atoms: _209  and  _212
REMARK   86  A    between atoms: _212  and  _213
REMARK   87  A    between atoms: _216  and  _218
REMARK   88  A    between atoms: _218  and  _219
REMARK   89  A    between atoms: _221  and  _223
REMARK   90  A    between atoms: _223  and  _224
REMARK   91  A    between atoms: _223  and  _226
REMARK   92  A    between atoms: _226  and  _227
REMARK   93  A    between atoms: _227  and  _228
REMARK   94  A    between atoms: _228  and  _229
REMARK   95  A    between atoms: _238  and  _240
REMARK   96  A    between atoms: _240  and  _241
REMARK   97  A    between atoms: _240  and  _243
REMARK   98  A    between atoms: _243  and  _244
REMARK   99  A    between atoms: _249  and  _251
REMARK  100  A    between atoms: _251  and  _252
REMARK  101  A    between atoms: _251  and  _254
REMARK  102  A    between atoms: _254  and  _255
REMARK  103  A    between atoms: _255  and  _256
REMARK  104  A    between atoms: _256  and  _257
REMARK  105  A    between atoms: _266  and  _268
REMARK  106  A    between atoms: _268  and  _269
REMARK  107  A    between atoms: _268  and  _271
REMARK  108  A    between atoms: _271  and  _272
REMARK  109  A    between atoms: _275  and  _277
REMARK  110  A    between atoms: _277  and  _278
REMARK  111  A    between atoms: _277  and  _280
REMARK  112  A    between atoms: _280  and  _281
REMARK  113  A    between atoms: _284  and  _286
REMARK  114  A    between atoms: _286  and  _287
REMARK  115  A    between atoms: _286  and  _289
REMARK  116  A    between atoms: _289  and  _290
REMARK  117  A    between atoms: _293  and  _295
REMARK  118  A    between atoms: _295  and  _296
REMARK  119  A    between atoms: _295  and  _298
REMARK  120  A    between atoms: _298  and  _299
REMARK  121  A    between atoms: _302  and  _304
REMARK  122  A    between atoms: _304  and  _305
REMARK  123  A    between atoms: _307  and  _309
REMARK  124  A    between atoms: _309  and  _310
REMARK  125  A    between atoms: _313  and  _315
REMARK  126  A    between atoms: _315  and  _316
REMARK  127  A    between atoms: _315  and  _318
REMARK  128  A    between atoms: _318  and  _319
REMARK  129  A    between atoms: _322  and  _324
REMARK  130  A    between atoms: _324  and  _325
REMARK  131  A    between atoms: _324  and  _327
REMARK  132  A    between atoms: _327  and  _328
REMARK  133  A    between atoms: _331  and  _333
REMARK  134  A    between atoms: _333  and  _334
REMARK  135  A    between atoms: _333  and  _336
REMARK  136  A    between atoms: _336  and  _337
REMARK  137  A    between atoms: _340  and  _342
REMARK  138  A    between atoms: _342  and  _343
REMARK  139  A    between atoms: _342  and  _345
REMARK  140  A    between atoms: _348  and  _350
REMARK  141  A    between atoms: _350  and  _351
REMARK  142  A    between atoms: _350  and  _353
REMARK  143  A    between atoms: _353  and  _354
REMARK  144  A    between atoms: _357  and  _359
REMARK  145  A    between atoms: _359  and  _360
REMARK  146  A    between atoms: _359  and  _362
REMARK  147  A    between atoms: _362  and  _363
REMARK  148  A    between atoms: _363  and  _364
REMARK  149  A    between atoms: _364  and  _365
REMARK  150  A    between atoms: _365  and  _366
REMARK  151  A    between atoms: _370  and  _372
REMARK  152  A    between atoms: _372  and  _373
REMARK  153  A    between atoms: _372  and  _375
REMARK  154  A    between atoms: _375  and  _376
REMARK  155  A    between atoms: _376  and  _377
REMARK  156  A    between atoms: _379  and  _381
REMARK  157  A    between atoms: _381  and  _382
REMARK  158  A    between atoms: _381  and  _384
REMARK  159  A    between atoms: _384  and  _385
REMARK  160  A    between atoms: _388  and  _390
REMARK  161  A    between atoms: _390  and  _391
REMARK  162  A    between atoms: _393  and  _395
REMARK  163  A    between atoms: _395  and  _396
REMARK  164  A    between atoms: _398  and  _400
REMARK  165  A    between atoms: _400  and  _401
REMARK  166  A    between atoms: _400  and  _403
REMARK  167  A    between atoms: _403  and  _404
REMARK  168  A    between atoms: _407  and  _409
REMARK  169  A    between atoms: _409  and  _410
REMARK  170  A    between atoms: _412  and  _414
REMARK  171  A    between atoms: _414  and  _415
REMARK  172  A    between atoms: _417  and  _419
REMARK  173  A    between atoms: _419  and  _420
REMARK  174  A    between atoms: _419  and  _422
REMARK  175  A    between atoms: _422  and  _423
REMARK  176  A    between atoms: _429  and  _431
REMARK  177  A    between atoms: _431  and  _432
REMARK  178  A    between atoms: _431  and  _434
REMARK  179  A    between atoms: _434  and  _435
REMARK  180  A    between atoms: _438  and  _440
REMARK  181  A    between atoms: _440  and  _441
REMARK  182  A    between atoms: _440  and  _443
REMARK  183  A    between atoms: _446  and  _448
REMARK  184  A    between atoms: _448  and  _449
REMARK  185  A    between atoms: _448  and  _451
REMARK  186  A    between atoms: _451  and  _452
REMARK  187  A    between atoms: _455  and  _457
REMARK  188  A    between atoms: _457  and  _458
REMARK  189  A    between atoms: _457  and  _460
REMARK  190  A    between atoms: _460  and  _461
REMARK  191  A    between atoms: _465  and  _466
REMARK  192  A    between atoms: _471  and  _473
REMARK  193  A    between atoms: _473  and  _474
REMARK  194  A    between atoms: _473  and  _476
REMARK  195  A    between atoms: _479  and  _481
REMARK  196  A    between atoms: _481  and  _482
REMARK  197  A    between atoms: _481  and  _484
REMARK  198  A    between atoms: _484  and  _485
REMARK  199  A    between atoms: _490  and  _492
REMARK  200  A    between atoms: _492  and  _493
REMARK  201  A    between atoms: _492  and  _495
REMARK  202  A    between atoms: _495  and  _496
REMARK  203  A    between atoms: _499  and  _501
REMARK  204  A    between atoms: _501  and  _502
REMARK  205  A    between atoms: _501  and  _504
REMARK  206  A    between atoms: _504  and  _505
REMARK  207  A    between atoms: _508  and  _510
REMARK  208  A    between atoms: _510  and  _511
REMARK  209  A    between atoms: _513  and  _515
REMARK  210  A    between atoms: _515  and  _516
REMARK  211  A    between atoms: _515  and  _518
REMARK  212  A    between atoms: _518  and  _519
REMARK  213  A    between atoms: _519  and  _520
REMARK  214  A    between atoms: _520  and  _521
REMARK  215  A    between atoms: _530  and  _532
REMARK  216  A    between atoms: _532  and  _533
REMARK  217  A    between atoms: _532  and  _535
REMARK  218  A    between atoms: _535  and  _536
REMARK                            x       y       z     vdW  Elec       q    Type
REMARK                         _______ _______ _______ _____ _____    ______ ____
ROOT
ATOM      1  O   HOH     1      20.226  31.928  11.823  0.00  0.00    +0.000 OA
ENDROOT
TORSDOF 0
REMARK  Name = ../refined-set-2016/3o9e/3o9e_pocket.pdb
REMARK  218 active torsions:
REMARK  status: ('A' for Active; 'I' for Inactive)
REMARK    1  A    between atoms: _1  and  _3
REMARK    2  A    between atoms: _3  and  _4
REMARK    3  A    between atoms: _3  and  _6
REMARK    4  A    between atoms: _6  and  _7
REMARK    5  A    between atoms: _7  and  _8
REMARK    6  A    between atoms: _8  and  _9
REMARK    7  A    between atoms: _18  and  _20
REMARK    8  A    between atoms: _20  and  _21
REMARK    9  A    between atoms: _20  and  _23
REMARK   10  A    between atoms: _23  and  _24
REMARK   11  A    between atoms: _27  and  _29
REMARK   12  A    between atoms: _29  and  _30
REMARK   13  A    between atoms: _29  and  _32
REMARK   14  A    between atoms: _32  and  _33
REMARK   15  A    between atoms: _36  and  _38
REMARK   16  A    between atoms: _38  and  _39
REMARK   17  A    between atoms: _38  and  _41
REMARK   18  A    between atoms: _41  and  _42
REMARK   19  A    between atoms: _45  and  _47
REMARK   20  A    between atoms: _47  and  _48
REMARK   21  A    between atoms: _47  and  _50
REMARK   22  A    between atoms: _50  and  _51
REMARK   23  A    between atoms: _54  and  _56
REMARK   24  A    between atoms: _56  and  _57
REMARK   25  A    between atoms: _59  and  _61
REMARK   26  A    between atoms: _61  and  _62
REMARK   27  A    between atoms: _65  and  _67
REMARK   28  A    between atoms: _67  and  _68
REMARK   29  A    between atoms: _67  and  _70
REMARK   30  A    between atoms: _70  and  _71
REMARK   31  A    between atoms: _74  and  _76
REMARK   32  A    between atoms: _76  and  _77
REMARK   33  A    between atoms: _76  and  _79
REMARK   34  A    between atoms: _79  and  _80
REMARK   35  A    between atoms: _83  and  _85
REMARK   36  A    between atoms: _85  and  _86
REMARK   37  A    between atoms: _85  and  _88
REMARK   38  A    between atoms: _88  and  _89
REMARK   39  A    between atoms: _92  and  _94
REMARK   40  A    between atoms: _94  and  _95
REMARK   41  A    between atoms: _94  and  _97
REMARK   42  A    between atoms: _100  and  _102
REMARK   43  A    between atoms: _102  and  _103
REMARK   44  A    between atoms: _102  and  _105
REMARK   45  A    between atoms: _105  and  _106
REMARK   46  A    between atoms: _109  and  _111
REMARK   47  A    between atoms: _111  and  _112
REMARK   48  A    between atoms: _114  and  _116
REMARK   49  A    between atoms: _116  and  _117
REMARK   50  A    between atoms: _119  and  _121
REMARK   51  A    between atoms: _121  and  _122
REMARK   52  A    between atoms: _121  and  _124
REMARK   53  A    between atoms: _124  and  _125
REMARK   54  A    between atoms: _128  and  _130
REMARK   55  A    between atoms: _130  and  _131
REMARK   56  A    between atoms: _133  and  _135
REMARK   57  A    between atoms: _135  and  _136
REMARK   58  A    between atoms: _138  and  _140
REMARK   59  A    between atoms: _140  and  _141
REMARK   60  A    between atoms: _140  and  _143
REMARK   61  A    between atoms: _143  and  _144
REMARK   62  A    between atoms: _147  and  _149
REMARK   63  A    between atoms: _149  and  _150
REMARK   64  A    between atoms: _149  and  _152
REMARK   65  A    between atoms: _152  and  _153
REMARK   66  A    between atoms: _157  and  _158
REMARK   67  A    between atoms: _163  and  _165
REMARK   68  A    between atoms: _165  and  _166
REMARK   69  A    between atoms: _165  and  _168
REMARK   70  A    between atoms: _168  and  _169
REMARK   71  A    between atoms: _173  and  _174
REMARK   72  A    between atoms: _179  and  _181
REMARK   73  A    between atoms: _181  and  _182
REMARK   74  A    between atoms: _181  and  _184
REMARK   75  A    between atoms: _187  and  _189
REMARK   76  A    between atoms: _189  and  _190
REMARK   77  A    between atoms: _189  and  _192
REMARK   78  A    between atoms: _192  and  _193
REMARK   79  A    between atoms: _198  and  _200
REMARK   80  A    between atoms: _200  and  _201
REMARK   81  A    between atoms: _200  and  _203
REMARK   82  A    between atoms: _203  and  _204
REMARK   83  A    between atoms: _207  and  _209
REMARK   84  A    between atoms: _209  and  _210
REMARK   85  A    between atoms: _209  and  _212
REMARK   86  A    between atoms: _212  and  _213
REMARK   87  A    between atoms: _216  and  _218
REMARK   88  A    between atoms: _218  and  _219
REMARK   89  A    between atoms: _221  and  _223
REMARK   90  A    between atoms: _223  and  _224
REMARK   91  A    between atoms: _223  and  _226
REMARK   92  A    between atoms: _226  and  _227
REMARK   93  A    between atoms: _227  and  _228
REMARK   94  A    between atoms: _228  and  _229
REMARK   95  A    between atoms: _238  and  _240
REMARK   96  A    between atoms: _240  and  _241
REMARK   97  A    between atoms: _240  and  _243
REMARK   98  A    between atoms: _243  and  _244
REMARK   99  A    between atoms: _249  and  _251
REMARK  100  A    between atoms: _251  and  _252
REMARK  101  A    between atoms: _251  and  _254
REMARK  102  A    between atoms: _254  and  _255
REMARK  103  A    between atoms: _255  and  _256
REMARK  104  A    between atoms: _256  and  _257
REMARK  105  A    between atoms: _266  and  _268
REMARK  106  A    between atoms: _268  and  _269
REMARK  107  A    between atoms: _268  and  _271
REMARK  108  A    between atoms: _271  and  _272
REMARK  109  A    between atoms: _275  and  _277
REMARK  110  A    between atoms: _277  and  _278
REMARK  111  A    between atoms: _277  and  _280
REMARK  112  A    between atoms: _280  and  _281
REMARK  113  A    between atoms: _284  and  _286
REMARK  114  A    between atoms: _286  and  _287
REMARK  115  A    between atoms: _286  and  _289
REMARK  116  A    between atoms: _289  and  _290
REMARK  117  A    between atoms: _293  and  _295
REMARK  118  A    between atoms: _295  and  _296
REMARK  119  A    between atoms: _295  and  _298
REMARK  120  A    between atoms: _298  and  _299
REMARK  121  A    between atoms: _302  and  _304
REMARK  122  A    between atoms: _304  and  _305
REMARK  123  A    between atoms: _307  and  _309
REMARK  124  A    between atoms: _309  and  _310
REMARK  125  A    between atoms: _313  and  _315
REMARK  126  A    between atoms: _315  and  _316
REMARK  127  A    between atoms: _315  and  _318
REMARK  128  A    between atoms: _318  and  _319
REMARK  129  A    between atoms: _322  and  _324
REMARK  130  A    between atoms: _324  and  _325
REMARK  131  A    between atoms: _324  and  _327
REMARK  132  A    between atoms: _327  and  _328
REMARK  133  A    between atoms: _331  and  _333
REMARK  134  A    between atoms: _333  and  _334
REMARK  135  A    between atoms: _333  and  _336
REMARK  136  A    between atoms: _336  and  _337
REMARK  137  A    between atoms: _340  and  _342
REMARK  138  A    between atoms: _342  and  _343
REMARK  139  A    between atoms: _342  and  _345
REMARK  140  A    between atoms: _348  and  _350
REMARK  141  A    between atoms: _350  and  _351
REMARK  142  A    between atoms: _350  and  _353
REMARK  143  A    between atoms: _353  and  _354
REMARK  144  A    between atoms: _357  and  _359
REMARK  145  A    between atoms: _359  and  _360
REMARK  146  A    between atoms: _359  and  _362
REMARK  147  A    between atoms: _362  and  _363
REMARK  148  A    between atoms: _363  and  _364
REMARK  149  A    between atoms: _364  and  _365
REMARK  150  A    between atoms: _365  and  _366
REMARK  151  A    between atoms: _370  and  _372
REMARK  152  A    between atoms: _372  and  _373
REMARK  153  A    between atoms: _372  and  _375
REMARK  154  A    between atoms: _375  and  _376
REMARK  155  A    between atoms: _376  and  _377
REMARK  156  A    between atoms: _379  and  _381
REMARK  157  A    between atoms: _381  and  _382
REMARK  158  A    between atoms: _381  and  _384
REMARK  159  A    between atoms: _384  and  _385
REMARK  160  A    between atoms: _388  and  _390
REMARK  161  A    between atoms: _390  and  _391
REMARK  162  A    between atoms: _393  and  _395
REMARK  163  A    between atoms: _395  and  _396
REMARK  164  A    between atoms: _398  and  _400
REMARK  165  A    between atoms: _400  and  _401
REMARK  166  A    between atoms: _400  and  _403
REMARK  167  A    between atoms: _403  and  _404
REMARK  168  A    between atoms: _407  and  _409
REMARK  169  A    between atoms: _409  and  _410
REMARK  170  A    between atoms: _412  and  _414
REMARK  171  A    between atoms: _414  and  _415
REMARK  172  A    between atoms: _417  and  _419
REMARK  173  A    between atoms: _419  and  _420
REMARK  174  A    between atoms: _419  and  _422
REMARK  175  A    between atoms: _422  and  _423
REMARK  176  A    between atoms: _429  and  _431
REMARK  177  A    between atoms: _431  and  _432
REMARK  178  A    between atoms: _431  and  _434
REMARK  179  A    between atoms: _434  and  _435
REMARK  180  A    between atoms: _438  and  _440
REMARK  181  A    between atoms: _440  and  _441
REMARK  182  A    between atoms: _440  and  _443
REMARK  183  A    between atoms: _446  and  _448
REMARK  184  A    between atoms: _448  and  _449
REMARK  185  A    between atoms: _448  and  _451
REMARK  186  A    between atoms: _451  and  _452
REMARK  187  A    between atoms: _455  and  _457
REMARK  188  A    between atoms: _457  and  _458
REMARK  189  A    between atoms: _457  and  _460
REMARK  190  A    between atoms: _460  and  _461
REMARK  191  A    between atoms: _465  and  _466
REMARK  192  A    between atoms: _471  and  _473
REMARK  193  A    between atoms: _473  and  _474
REMARK  194  A    between atoms: _473  and  _476
REMARK  195  A    between atoms: _479  and  _481
REMARK  196  A    between atoms: _481  and  _482
REMARK  197  A    between atoms: _481  and  _484
REMARK  198  A    between atoms: _484  and  _485
REMARK  199  A    between atoms: _490  and  _492
REMARK  200  A    between atoms: _492  and  _493
REMARK  201  A    between atoms: _492  and  _495
REMARK  202  A    between atoms: _495  and  _496
REMARK  203  A    between atoms: _499  and  _501
REMARK  204  A    between atoms: _501  and  _502
REMARK  205  A    between atoms: _501  and  _504
REMARK  206  A    between atoms: _504  and  _505
REMARK  207  A    between atoms: _508  and  _510
REMARK  208  A    between atoms: _510  and  _511
REMARK  209  A    between atoms: _513  and  _515
REMARK  210  A    between atoms: _515  and  _516
REMARK  211  A    between atoms: _515  and  _518
REMARK  212  A    between atoms: _518  and  _519
REMARK  213  A    between atoms: _519  and  _520
REMARK  214  A    between atoms: _520  and  _521
REMARK  215  A    between atoms: _530  and  _532
REMARK  216  A    between atoms: _532  and  _533
REMARK  217  A    between atoms: _532  and  _535
REMARK  218  A    between atoms: _535  and  _536
REMARK                            x       y       z     vdW  Elec       q    Type
REMARK                         _______ _______ _______ _____ _____    ______ ____
ROOT
ATOM      1  O   HOH     1      25.077  23.631   7.414  0.00  0.00    +0.000 OA
ENDROOT
TORSDOF 0
REMARK  Name = ../refined-set-2016/3o9e/3o9e_pocket.pdb
REMARK  218 active torsions:
REMARK  status: ('A' for Active; 'I' for Inactive)
REMARK    1  A    between atoms: _1  and  _3
REMARK    2  A    between atoms: _3  and  _4
REMARK    3  A    between atoms: _3  and  _6
REMARK    4  A    between atoms: _6  and  _7
REMARK    5  A    between atoms: _7  and  _8
REMARK    6  A    between atoms: _8  and  _9
REMARK    7  A    between atoms: _18  and  _20
REMARK    8  A    between atoms: _20  and  _21
REMARK    9  A    between atoms: _20  and  _23
REMARK   10  A    between atoms: _23  and  _24
REMARK   11  A    between atoms: _27  and  _29
REMARK   12  A    between atoms: _29  and  _30
REMARK   13  A    between atoms: _29  and  _32
REMARK   14  A    between atoms: _32  and  _33
REMARK   15  A    between atoms: _36  and  _38
REMARK   16  A    between atoms: _38  and  _39
REMARK   17  A    between atoms: _38  and  _41
REMARK   18  A    between atoms: _41  and  _42
REMARK   19  A    between atoms: _45  and  _47
REMARK   20  A    between atoms: _47  and  _48
REMARK   21  A    between atoms: _47  and  _50
REMARK   22  A    between atoms: _50  and  _51
REMARK   23  A    between atoms: _54  and  _56
REMARK   24  A    between atoms: _56  and  _57
REMARK   25  A    between atoms: _59  and  _61
REMARK   26  A    between atoms: _61  and  _62
REMARK   27  A    between atoms: _65  and  _67
REMARK   28  A    between atoms: _67  and  _68
REMARK   29  A    between atoms: _67  and  _70
REMARK   30  A    between atoms: _70  and  _71
REMARK   31  A    between atoms: _74  and  _76
REMARK   32  A    between atoms: _76  and  _77
REMARK   33  A    between atoms: _76  and  _79
REMARK   34  A    between atoms: _79  and  _80
REMARK   35  A    between atoms: _83  and  _85
REMARK   36  A    between atoms: _85  and  _86
REMARK   37  A    between atoms: _85  and  _88
REMARK   38  A    between atoms: _88  and  _89
REMARK   39  A    between atoms: _92  and  _94
REMARK   40  A    between atoms: _94  and  _95
REMARK   41  A    between atoms: _94  and  _97
REMARK   42  A    between atoms: _100  and  _102
REMARK   43  A    between atoms: _102  and  _103
REMARK   44  A    between atoms: _102  and  _105
REMARK   45  A    between atoms: _105  and  _106
REMARK   46  A    between atoms: _109  and  _111
REMARK   47  A    between atoms: _111  and  _112
REMARK   48  A    between atoms: _114  and  _116
REMARK   49  A    between atoms: _116  and  _117
REMARK   50  A    between atoms: _119  and  _121
REMARK   51  A    between atoms: _121  and  _122
REMARK   52  A    between atoms: _121  and  _124
REMARK   53  A    between atoms: _124  and  _125
REMARK   54  A    between atoms: _128  and  _130
REMARK   55  A    between atoms: _130  and  _131
REMARK   56  A    between atoms: _133  and  _135
REMARK   57  A    between atoms: _135  and  _136
REMARK   58  A    between atoms: _138  and  _140
REMARK   59  A    between atoms: _140  and  _141
REMARK   60  A    between atoms: _140  and  _143
REMARK   61  A    between atoms: _143  and  _144
REMARK   62  A    between atoms: _147  and  _149
REMARK   63  A    between atoms: _149  and  _150
REMARK   64  A    between atoms: _149  and  _152
REMARK   65  A    between atoms: _152  and  _153
REMARK   66  A    between atoms: _157  and  _158
REMARK   67  A    between atoms: _163  and  _165
REMARK   68  A    between atoms: _165  and  _166
REMARK   69  A    between atoms: _165  and  _168
REMARK   70  A    between atoms: _168  and  _169
REMARK   71  A    between atoms: _173  and  _174
REMARK   72  A    between atoms: _179  and  _181
REMARK   73  A    between atoms: _181  and  _182
REMARK   74  A    between atoms: _181  and  _184
REMARK   75  A    between atoms: _187  and  _189
REMARK   76  A    between atoms: _189  and  _190
REMARK   77  A    between atoms: _189  and  _192
REMARK   78  A    between atoms: _192  and  _193
REMARK   79  A    between atoms: _198  and  _200
REMARK   80  A    between atoms: _200  and  _201
REMARK   81  A    between atoms: _200  and  _203
REMARK   82  A    between atoms: _203  and  _204
REMARK   83  A    between atoms: _207  and  _209
REMARK   84  A    between atoms: _209  and  _210
REMARK   85  A    between atoms: _209  and  _212
REMARK   86  A    between atoms: _212  and  _213
REMARK   87  A    between atoms: _216  and  _218
REMARK   88  A    between atoms: _218  and  _219
REMARK   89  A    between atoms: _221  and  _223
REMARK   90  A    between atoms: _223  and  _224
REMARK   91  A    between atoms: _223  and  _226
REMARK   92  A    between atoms: _226  and  _227
REMARK   93  A    between atoms: _227  and  _228
REMARK   94  A    between atoms: _228  and  _229
REMARK   95  A    between atoms: _238  and  _240
REMARK   96  A    between atoms: _240  and  _241
REMARK   97  A    between atoms: _240  and  _243
REMARK   98  A    between atoms: _243  and  _244
REMARK   99  A    between atoms: _249  and  _251
REMARK  100  A    between atoms: _251  and  _252
REMARK  101  A    between atoms: _251  and  _254
REMARK  102  A    between atoms: _254  and  _255
REMARK  103  A    between atoms: _255  and  _256
REMARK  104  A    between atoms: _256  and  _257
REMARK  105  A    between atoms: _266  and  _268
REMARK  106  A    between atoms: _268  and  _269
REMARK  107  A    between atoms: _268  and  _271
REMARK  108  A    between atoms: _271  and  _272
REMARK  109  A    between atoms: _275  and  _277
REMARK  110  A    between atoms: _277  and  _278
REMARK  111  A    between atoms: _277  and  _280
REMARK  112  A    between atoms: _280  and  _281
REMARK  113  A    between atoms: _284  and  _286
REMARK  114  A    between atoms: _286  and  _287
REMARK  115  A    between atoms: _286  and  _289
REMARK  116  A    between atoms: _289  and  _290
REMARK  117  A    between atoms: _293  and  _295
REMARK  118  A    between atoms: _295  and  _296
REMARK  119  A    between atoms: _295  and  _298
REMARK  120  A    between atoms: _298  and  _299
REMARK  121  A    between atoms: _302  and  _304
REMARK  122  A    between atoms: _304  and  _305
REMARK  123  A    between atoms: _307  and  _309
REMARK  124  A    between atoms: _309  and  _310
REMARK  125  A    between atoms: _313  and  _315
REMARK  126  A    between atoms: _315  and  _316
REMARK  127  A    between atoms: _315  and  _318
REMARK  128  A    between atoms: _318  and  _319
REMARK  129  A    between atoms: _322  and  _324
REMARK  130  A    between atoms: _324  and  _325
REMARK  131  A    between atoms: _324  and  _327
REMARK  132  A    between atoms: _327  and  _328
REMARK  133  A    between atoms: _331  and  _333
REMARK  134  A    between atoms: _333  and  _334
REMARK  135  A    between atoms: _333  and  _336
REMARK  136  A    between atoms: _336  and  _337
REMARK  137  A    between atoms: _340  and  _342
REMARK  138  A    between atoms: _342  and  _343
REMARK  139  A    between atoms: _342  and  _345
REMARK  140  A    between atoms: _348  and  _350
REMARK  141  A    between atoms: _350  and  _351
REMARK  142  A    between atoms: _350  and  _353
REMARK  143  A    between atoms: _353  and  _354
REMARK  144  A    between atoms: _357  and  _359
REMARK  145  A    between atoms: _359  and  _360
REMARK  146  A    between atoms: _359  and  _362
REMARK  147  A    between atoms: _362  and  _363
REMARK  148  A    between atoms: _363  and  _364
REMARK  149  A    between atoms: _364  and  _365
REMARK  150  A    between atoms: _365  and  _366
REMARK  151  A    between atoms: _370  and  _372
REMARK  152  A    between atoms: _372  and  _373
REMARK  153  A    between atoms: _372  and  _375
REMARK  154  A    between atoms: _375  and  _376
REMARK  155  A    between atoms: _376  and  _377
REMARK  156  A    between atoms: _379  and  _381
REMARK  157  A    between atoms: _381  and  _382
REMARK  158  A    between atoms: _381  and  _384
REMARK  159  A    between atoms: _384  and  _385
REMARK  160  A    between atoms: _388  and  _390
REMARK  161  A    between atoms: _390  and  _391
REMARK  162  A    between atoms: _393  and  _395
REMARK  163  A    between atoms: _395  and  _396
REMARK  164  A    between atoms: _398  and  _400
REMARK  165  A    between atoms: _400  and  _401
REMARK  166  A    between atoms: _400  and  _403
REMARK  167  A    between atoms: _403  and  _404
REMARK  168  A    between atoms: _407  and  _409
REMARK  169  A    between atoms: _409  and  _410
REMARK  170  A    between atoms: _412  and  _414
REMARK  171  A    between atoms: _414  and  _415
REMARK  172  A    between atoms: _417  and  _419
REMARK  173  A    between atoms: _419  and  _420
REMARK  174  A    between atoms: _419  and  _422
REMARK  175  A    between atoms: _422  and  _423
REMARK  176  A    between atoms: _429  and  _431
REMARK  177  A    between atoms: _431  and  _432
REMARK  178  A    between atoms: _431  and  _434
REMARK  179  A    between atoms: _434  and  _435
REMARK  180  A    between atoms: _438  and  _440
REMARK  181  A    between atoms: _440  and  _441
REMARK  182  A    between atoms: _440  and  _443
REMARK  183  A    between atoms: _446  and  _448
REMARK  184  A    between atoms: _448  and  _449
REMARK  185  A    between atoms: _448  and  _451
REMARK  186  A    between atoms: _451  and  _452
REMARK  187  A    between atoms: _455  and  _457
REMARK  188  A    between atoms: _457  and  _458
REMARK  189  A    between atoms: _457  and  _460
REMARK  190  A    between atoms: _460  and  _461
REMARK  191  A    between atoms: _465  and  _466
REMARK  192  A    between atoms: _471  and  _473
REMARK  193  A    between atoms: _473  and  _474
REMARK  194  A    between atoms: _473  and  _476
REMARK  195  A    between atoms: _479  and  _481
REMARK  196  A    between atoms: _481  and  _482
REMARK  197  A    between atoms: _481  and  _484
REMARK  198  A    between atoms: _484  and  _485
REMARK  199  A    between atoms: _490  and  _492
REMARK  200  A    between atoms: _492  and  _493
REMARK  201  A    between atoms: _492  and  _495
REMARK  202  A    between atoms: _495  and  _496
REMARK  203  A    between atoms: _499  and  _501
REMARK  204  A    between atoms: _501  and  _502
REMARK  205  A    between atoms: _501  and  _504
REMARK  206  A    between atoms: _504  and  _505
REMARK  207  A    between atoms: _508  and  _510
REMARK  208  A    between atoms: _510  and  _511
REMARK  209  A    between atoms: _513  and  _515
REMARK  210  A    between atoms: _515  and  _516
REMARK  211  A    between atoms: _515  and  _518
REMARK  212  A    between atoms: _518  and  _519
REMARK  213  A    between atoms: _519  and  _520
REMARK  214  A    between atoms: _520  and  _521
REMARK  215  A    between atoms: _530  and  _532
REMARK  216  A    between atoms: _532  and  _533
REMARK  217  A    between atoms: _532  and  _535
REMARK  218  A    between atoms: _535  and  _536
REMARK                            x       y       z     vdW  Elec       q    Type
REMARK                         _______ _______ _______ _____ _____    ______ ____
ROOT
ATOM      1  O   HOH     1      31.175  23.598  12.290  0.00  0.00    +0.000 OA
ENDROOT
TORSDOF 0
REMARK  Name = ../refined-set-2016/3o9e/3o9e_pocket.pdb
REMARK  218 active torsions:
REMARK  status: ('A' for Active; 'I' for Inactive)
REMARK    1  A    between atoms: _1  and  _3
REMARK    2  A    between atoms: _3  and  _4
REMARK    3  A    between atoms: _3  and  _6
REMARK    4  A    between atoms: _6  and  _7
REMARK    5  A    between atoms: _7  and  _8
REMARK    6  A    between atoms: _8  and  _9
REMARK    7  A    between atoms: _18  and  _20
REMARK    8  A    between atoms: _20  and  _21
REMARK    9  A    between atoms: _20  and  _23
REMARK   10  A    between atoms: _23  and  _24
REMARK   11  A    between atoms: _27  and  _29
REMARK   12  A    between atoms: _29  and  _30
REMARK   13  A    between atoms: _29  and  _32
REMARK   14  A    between atoms: _32  and  _33
REMARK   15  A    between atoms: _36  and  _38
REMARK   16  A    between atoms: _38  and  _39
REMARK   17  A    between atoms: _38  and  _41
REMARK   18  A    between atoms: _41  and  _42
REMARK   19  A    between atoms: _45  and  _47
REMARK   20  A    between atoms: _47  and  _48
REMARK   21  A    between atoms: _47  and  _50
REMARK   22  A    between atoms: _50  and  _51
REMARK   23  A    between atoms: _54  and  _56
REMARK   24  A    between atoms: _56  and  _57
REMARK   25  A    between atoms: _59  and  _61
REMARK   26  A    between atoms: _61  and  _62
REMARK   27  A    between atoms: _65  and  _67
REMARK   28  A    between atoms: _67  and  _68
REMARK   29  A    between atoms: _67  and  _70
REMARK   30  A    between atoms: _70  and  _71
REMARK   31  A    between atoms: _74  and  _76
REMARK   32  A    between atoms: _76  and  _77
REMARK   33  A    between atoms: _76  and  _79
REMARK   34  A    between atoms: _79  and  _80
REMARK   35  A    between atoms: _83  and  _85
REMARK   36  A    between atoms: _85  and  _86
REMARK   37  A    between atoms: _85  and  _88
REMARK   38  A    between atoms: _88  and  _89
REMARK   39  A    between atoms: _92  and  _94
REMARK   40  A    between atoms: _94  and  _95
REMARK   41  A    between atoms: _94  and  _97
REMARK   42  A    between atoms: _100  and  _102
REMARK   43  A    between atoms: _102  and  _103
REMARK   44  A    between atoms: _102  and  _105
REMARK   45  A    between atoms: _105  and  _106
REMARK   46  A    between atoms: _109  and  _111
REMARK   47  A    between atoms: _111  and  _112
REMARK   48  A    between atoms: _114  and  _116
REMARK   49  A    between atoms: _116  and  _117
REMARK   50  A    between atoms: _119  and  _121
REMARK   51  A    between atoms: _121  and  _122
REMARK   52  A    between atoms: _121  and  _124
REMARK   53  A    between atoms: _124  and  _125
REMARK   54  A    between atoms: _128  and  _130
REMARK   55  A    between atoms: _130  and  _131
REMARK   56  A    between atoms: _133  and  _135
REMARK   57  A    between atoms: _135  and  _136
REMARK   58  A    between atoms: _138  and  _140
REMARK   59  A    between atoms: _140  and  _141
REMARK   60  A    between atoms: _140  and  _143
REMARK   61  A    between atoms: _143  and  _144
REMARK   62  A    between atoms: _147  and  _149
REMARK   63  A    between atoms: _149  and  _150
REMARK   64  A    between atoms: _149  and  _152
REMARK   65  A    between atoms: _152  and  _153
REMARK   66  A    between atoms: _157  and  _158
REMARK   67  A    between atoms: _163  and  _165
REMARK   68  A    between atoms: _165  and  _166
REMARK   69  A    between atoms: _165  and  _168
REMARK   70  A    between atoms: _168  and  _169
REMARK   71  A    between atoms: _173  and  _174
REMARK   72  A    between atoms: _179  and  _181
REMARK   73  A    between atoms: _181  and  _182
REMARK   74  A    between atoms: _181  and  _184
REMARK   75  A    between atoms: _187  and  _189
REMARK   76  A    between atoms: _189  and  _190
REMARK   77  A    between atoms: _189  and  _192
REMARK   78  A    between atoms: _192  and  _193
REMARK   79  A    between atoms: _198  and  _200
REMARK   80  A    between atoms: _200  and  _201
REMARK   81  A    between atoms: _200  and  _203
REMARK   82  A    between atoms: _203  and  _204
REMARK   83  A    between atoms: _207  and  _209
REMARK   84  A    between atoms: _209  and  _210
REMARK   85  A    between atoms: _209  and  _212
REMARK   86  A    between atoms: _212  and  _213
REMARK   87  A    between atoms: _216  and  _218
REMARK   88  A    between atoms: _218  and  _219
REMARK   89  A    between atoms: _221  and  _223
REMARK   90  A    between atoms: _223  and  _224
REMARK   91  A    between atoms: _223  and  _226
REMARK   92  A    between atoms: _226  and  _227
REMARK   93  A    between atoms: _227  and  _228
REMARK   94  A    between atoms: _228  and  _229
REMARK   95  A    between atoms: _238  and  _240
REMARK   96  A    between atoms: _240  and  _241
REMARK   97  A    between atoms: _240  and  _243
REMARK   98  A    between atoms: _243  and  _244
REMARK   99  A    between atoms: _249  and  _251
REMARK  100  A    between atoms: _251  and  _252
REMARK  101  A    between atoms: _251  and  _254
REMARK  102  A    between atoms: _254  and  _255
REMARK  103  A    between atoms: _255  and  _256
REMARK  104  A    between atoms: _256  and  _257
REMARK  105  A    between atoms: _266  and  _268
REMARK  106  A    between atoms: _268  and  _269
REMARK  107  A    between atoms: _268  and  _271
REMARK  108  A    between atoms: _271  and  _272
REMARK  109  A    between atoms: _275  and  _277
REMARK  110  A    between atoms: _277  and  _278
REMARK  111  A    between atoms: _277  and  _280
REMARK  112  A    between atoms: _280  and  _281
REMARK  113  A    between atoms: _284  and  _286
REMARK  114  A    between atoms: _286  and  _287
REMARK  115  A    between atoms: _286  and  _289
REMARK  116  A    between atoms: _289  and  _290
REMARK  117  A    between atoms: _293  and  _295
REMARK  118  A    between atoms: _295  and  _296
REMARK  119  A    between atoms: _295  and  _298
REMARK  120  A    between atoms: _298  and  _299
REMARK  121  A    between atoms: _302  and  _304
REMARK  122  A    between atoms: _304  and  _305
REMARK  123  A    between atoms: _307  and  _309
REMARK  124  A    between atoms: _309  and  _310
REMARK  125  A    between atoms: _313  and  _315
REMARK  126  A    between atoms: _315  and  _316
REMARK  127  A    between atoms: _315  and  _318
REMARK  128  A    between atoms: _318  and  _319
REMARK  129  A    between atoms: _322  and  _324
REMARK  130  A    between atoms: _324  and  _325
REMARK  131  A    between atoms: _324  and  _327
REMARK  132  A    between atoms: _327  and  _328
REMARK  133  A    between atoms: _331  and  _333
REMARK  134  A    between atoms: _333  and  _334
REMARK  135  A    between atoms: _333  and  _336
REMARK  136  A    between atoms: _336  and  _337
REMARK  137  A    between atoms: _340  and  _342
REMARK  138  A    between atoms: _342  and  _343
REMARK  139  A    between atoms: _342  and  _345
REMARK  140  A    between atoms: _348  and  _350
REMARK  141  A    between atoms: _350  and  _351
REMARK  142  A    between atoms: _350  and  _353
REMARK  143  A    between atoms: _353  and  _354
REMARK  144  A    between atoms: _357  and  _359
REMARK  145  A    between atoms: _359  and  _360
REMARK  146  A    between atoms: _359  and  _362
REMARK  147  A    between atoms: _362  and  _363
REMARK  148  A    between atoms: _363  and  _364
REMARK  149  A    between atoms: _364  and  _365
REMARK  150  A    between atoms: _365  and  _366
REMARK  151  A    between atoms: _370  and  _372
REMARK  152  A    between atoms: _372  and  _373
REMARK  153  A    between atoms: _372  and  _375
REMARK  154  A    between atoms: _375  and  _376
REMARK  155  A    between atoms: _376  and  _377
REMARK  156  A    between atoms: _379  and  _381
REMARK  157  A    between atoms: _381  and  _382
REMARK  158  A    between atoms: _381  and  _384
REMARK  159  A    between atoms: _384  and  _385
REMARK  160  A    between atoms: _388  and  _390
REMARK  161  A    between atoms: _390  and  _391
REMARK  162  A    between atoms: _393  and  _395
REMARK  163  A    between atoms: _395  and  _396
REMARK  164  A    between atoms: _398  and  _400
REMARK  165  A    between atoms: _400  and  _401
REMARK  166  A    between atoms: _400  and  _403
REMARK  167  A    between atoms: _403  and  _404
REMARK  168  A    between atoms: _407  and  _409
REMARK  169  A    between atoms: _409  and  _410
REMARK  170  A    between atoms: _412  and  _414
REMARK  171  A    between atoms: _414  and  _415
REMARK  172  A    between atoms: _417  and  _419
REMARK  173  A    between atoms: _419  and  _420
REMARK  174  A    between atoms: _419  and  _422
REMARK  175  A    between atoms: _422  and  _423
REMARK  176  A    between atoms: _429  and  _431
REMARK  177  A    between atoms: _431  and  _432
REMARK  178  A    between atoms: _431  and  _434
REMARK  179  A    between atoms: _434  and  _435
REMARK  180  A    between atoms: _438  and  _440
REMARK  181  A    between atoms: _440  and  _441
REMARK  182  A    between atoms: _440  and  _443
REMARK  183  A    between atoms: _446  and  _448
REMARK  184  A    between atoms: _448  and  _449
REMARK  185  A    between atoms: _448  and  _451
REMARK  186  A    between atoms: _451  and  _452
REMARK  187  A    between atoms: _455  and  _457
REMARK  188  A    between atoms: _457  and  _458
REMARK  189  A    between atoms: _457  and  _460
REMARK  190  A    between atoms: _460  and  _461
REMARK  191  A    between atoms: _465  and  _466
REMARK  192  A    between atoms: _471  and  _473
REMARK  193  A    between atoms: _473  and  _474
REMARK  194  A    between atoms: _473  and  _476
REMARK  195  A    between atoms: _479  and  _481
REMARK  196  A    between atoms: _481  and  _482
REMARK  197  A    between atoms: _481  and  _484
REMARK  198  A    between atoms: _484  and  _485
REMARK  199  A    between atoms: _490  and  _492
REMARK  200  A    between atoms: _492  and  _493
REMARK  201  A    between atoms: _492  and  _495
REMARK  202  A    between atoms: _495  and  _496
REMARK  203  A    between atoms: _499  and  _501
REMARK  204  A    between atoms: _501  and  _502
REMARK  205  A    between atoms: _501  and  _504
REMARK  206  A    between atoms: _504  and  _505
REMARK  207  A    between atoms: _508  and  _510
REMARK  208  A    between atoms: _510  and  _511
REMARK  209  A    between atoms: _513  and  _515
REMARK  210  A    between atoms: _515  and  _516
REMARK  211  A    between atoms: _515  and  _518
REMARK  212  A    between atoms: _518  and  _519
REMARK  213  A    between atoms: _519  and  _520
REMARK  214  A    between atoms: _520  and  _521
REMARK  215  A    between atoms: _530  and  _532
REMARK  216  A    between atoms: _532  and  _533
REMARK  217  A    between atoms: _532  and  _535
REMARK  218  A    between atoms: _535  and  _536
REMARK                            x       y       z     vdW  Elec       q    Type
REMARK                         _______ _______ _______ _____ _____    ______ ____
ROOT
ATOM      1  O   HOH     1      25.845  39.430  20.304  0.00  0.00    +0.000 OA
ENDROOT
TORSDOF 0
REMARK  Name = ../refined-set-2016/3o9e/3o9e_pocket.pdb
REMARK  218 active torsions:
REMARK  status: ('A' for Active; 'I' for Inactive)
REMARK    1  A    between atoms: _1  and  _3
REMARK    2  A    between atoms: _3  and  _4
REMARK    3  A    between atoms: _3  and  _6
REMARK    4  A    between atoms: _6  and  _7
REMARK    5  A    between atoms: _7  and  _8
REMARK    6  A    between atoms: _8  and  _9
REMARK    7  A    between atoms: _18  and  _20
REMARK    8  A    between atoms: _20  and  _21
REMARK    9  A    between atoms: _20  and  _23
REMARK   10  A    between atoms: _23  and  _24
REMARK   11  A    between atoms: _27  and  _29
REMARK   12  A    between atoms: _29  and  _30
REMARK   13  A    between atoms: _29  and  _32
REMARK   14  A    between atoms: _32  and  _33
REMARK   15  A    between atoms: _36  and  _38
REMARK   16  A    between atoms: _38  and  _39
REMARK   17  A    between atoms: _38  and  _41
REMARK   18  A    between atoms: _41  and  _42
REMARK   19  A    between atoms: _45  and  _47
REMARK   20  A    between atoms: _47  and  _48
REMARK   21  A    between atoms: _47  and  _50
REMARK   22  A    between atoms: _50  and  _51
REMARK   23  A    between atoms: _54  and  _56
REMARK   24  A    between atoms: _56  and  _57
REMARK   25  A    between atoms: _59  and  _61
REMARK   26  A    between atoms: _61  and  _62
REMARK   27  A    between atoms: _65  and  _67
REMARK   28  A    between atoms: _67  and  _68
REMARK   29  A    between atoms: _67  and  _70
REMARK   30  A    between atoms: _70  and  _71
REMARK   31  A    between atoms: _74  and  _76
REMARK   32  A    between atoms: _76  and  _77
REMARK   33  A    between atoms: _76  and  _79
REMARK   34  A    between atoms: _79  and  _80
REMARK   35  A    between atoms: _83  and  _85
REMARK   36  A    between atoms: _85  and  _86
REMARK   37  A    between atoms: _85  and  _88
REMARK   38  A    between atoms: _88  and  _89
REMARK   39  A    between atoms: _92  and  _94
REMARK   40  A    between atoms: _94  and  _95
REMARK   41  A    between atoms: _94  and  _97
REMARK   42  A    between atoms: _100  and  _102
REMARK   43  A    between atoms: _102  and  _103
REMARK   44  A    between atoms: _102  and  _105
REMARK   45  A    between atoms: _105  and  _106
REMARK   46  A    between atoms: _109  and  _111
REMARK   47  A    between atoms: _111  and  _112
REMARK   48  A    between atoms: _114  and  _116
REMARK   49  A    between atoms: _116  and  _117
REMARK   50  A    between atoms: _119  and  _121
REMARK   51  A    between atoms: _121  and  _122
REMARK   52  A    between atoms: _121  and  _124
REMARK   53  A    between atoms: _124  and  _125
REMARK   54  A    between atoms: _128  and  _130
REMARK   55  A    between atoms: _130  and  _131
REMARK   56  A    between atoms: _133  and  _135
REMARK   57  A    between atoms: _135  and  _136
REMARK   58  A    between atoms: _138  and  _140
REMARK   59  A    between atoms: _140  and  _141
REMARK   60  A    between atoms: _140  and  _143
REMARK   61  A    between atoms: _143  and  _144
REMARK   62  A    between atoms: _147  and  _149
REMARK   63  A    between atoms: _149  and  _150
REMARK   64  A    between atoms: _149  and  _152
REMARK   65  A    between atoms: _152  and  _153
REMARK   66  A    between atoms: _157  and  _158
REMARK   67  A    between atoms: _163  and  _165
REMARK   68  A    between atoms: _165  and  _166
REMARK   69  A    between atoms: _165  and  _168
REMARK   70  A    between atoms: _168  and  _169
REMARK   71  A    between atoms: _173  and  _174
REMARK   72  A    between atoms: _179  and  _181
REMARK   73  A    between atoms: _181  and  _182
REMARK   74  A    between atoms: _181  and  _184
REMARK   75  A    between atoms: _187  and  _189
REMARK   76  A    between atoms: _189  and  _190
REMARK   77  A    between atoms: _189  and  _192
REMARK   78  A    between atoms: _192  and  _193
REMARK   79  A    between atoms: _198  and  _200
REMARK   80  A    between atoms: _200  and  _201
REMARK   81  A    between atoms: _200  and  _203
REMARK   82  A    between atoms: _203  and  _204
REMARK   83  A    between atoms: _207  and  _209
REMARK   84  A    between atoms: _209  and  _210
REMARK   85  A    between atoms: _209  and  _212
REMARK   86  A    between atoms: _212  and  _213
REMARK   87  A    between atoms: _216  and  _218
REMARK   88  A    between atoms: _218  and  _219
REMARK   89  A    between atoms: _221  and  _223
REMARK   90  A    between atoms: _223  and  _224
REMARK   91  A    between atoms: _223  and  _226
REMARK   92  A    between atoms: _226  and  _227
REMARK   93  A    between atoms: _227  and  _228
REMARK   94  A    between atoms: _228  and  _229
REMARK   95  A    between atoms: _238  and  _240
REMARK   96  A    between atoms: _240  and  _241
REMARK   97  A    between atoms: _240  and  _243
REMARK   98  A    between atoms: _243  and  _244
REMARK   99  A    between atoms: _249  and  _251
REMARK  100  A    between atoms: _251  and  _252
REMARK  101  A    between atoms: _251  and  _254
REMARK  102  A    between atoms: _254  and  _255
REMARK  103  A    between atoms: _255  and  _256
REMARK  104  A    between atoms: _256  and  _257
REMARK  105  A    between atoms: _266  and  _268
REMARK  106  A    between atoms: _268  and  _269
REMARK  107  A    between atoms: _268  and  _271
REMARK  108  A    between atoms: _271  and  _272
REMARK  109  A    between atoms: _275  and  _277
REMARK  110  A    between atoms: _277  and  _278
REMARK  111  A    between atoms: _277  and  _280
REMARK  112  A    between atoms: _280  and  _281
REMARK  113  A    between atoms: _284  and  _286
REMARK  114  A    between atoms: _286  and  _287
REMARK  115  A    between atoms: _286  and  _289
REMARK  116  A    between atoms: _289  and  _290
REMARK  117  A    between atoms: _293  and  _295
REMARK  118  A    between atoms: _295  and  _296
REMARK  119  A    between atoms: _295  and  _298
REMARK  120  A    between atoms: _298  and  _299
REMARK  121  A    between atoms: _302  and  _304
REMARK  122  A    between atoms: _304  and  _305
REMARK  123  A    between atoms: _307  and  _309
REMARK  124  A    between atoms: _309  and  _310
REMARK  125  A    between atoms: _313  and  _315
REMARK  126  A    between atoms: _315  and  _316
REMARK  127  A    between atoms: _315  and  _318
REMARK  128  A    between atoms: _318  and  _319
REMARK  129  A    between atoms: _322  and  _324
REMARK  130  A    between atoms: _324  and  _325
REMARK  131  A    between atoms: _324  and  _327
REMARK  132  A    between atoms: _327  and  _328
REMARK  133  A    between atoms: _331  and  _333
REMARK  134  A    between atoms: _333  and  _334
REMARK  135  A    between atoms: _333  and  _336
REMARK  136  A    between atoms: _336  and  _337
REMARK  137  A    between atoms: _340  and  _342
REMARK  138  A    between atoms: _342  and  _343
REMARK  139  A    between atoms: _342  and  _345
REMARK  140  A    between atoms: _348  and  _350
REMARK  141  A    between atoms: _350  and  _351
REMARK  142  A    between atoms: _350  and  _353
REMARK  143  A    between atoms: _353  and  _354
REMARK  144  A    between atoms: _357  and  _359
REMARK  145  A    between atoms: _359  and  _360
REMARK  146  A    between atoms: _359  and  _362
REMARK  147  A    between atoms: _362  and  _363
REMARK  148  A    between atoms: _363  and  _364
REMARK  149  A    between atoms: _364  and  _365
REMARK  150  A    between atoms: _365  and  _366
REMARK  151  A    between atoms: _370  and  _372
REMARK  152  A    between atoms: _372  and  _373
REMARK  153  A    between atoms: _372  and  _375
REMARK  154  A    between atoms: _375  and  _376
REMARK  155  A    between atoms: _376  and  _377
REMARK  156  A    between atoms: _379  and  _381
REMARK  157  A    between atoms: _381  and  _382
REMARK  158  A    between atoms: _381  and  _384
REMARK  159  A    between atoms: _384  and  _385
REMARK  160  A    between atoms: _388  and  _390
REMARK  161  A    between atoms: _390  and  _391
REMARK  162  A    between atoms: _393  and  _395
REMARK  163  A    between atoms: _395  and  _396
REMARK  164  A    between atoms: _398  and  _400
REMARK  165  A    between atoms: _400  and  _401
REMARK  166  A    between atoms: _400  and  _403
REMARK  167  A    between atoms: _403  and  _404
REMARK  168  A    between atoms: _407  and  _409
REMARK  169  A    between atoms: _409  and  _410
REMARK  170  A    between atoms: _412  and  _414
REMARK  171  A    between atoms: _414  and  _415
REMARK  172  A    between atoms: _417  and  _419
REMARK  173  A    between atoms: _419  and  _420
REMARK  174  A    between atoms: _419  and  _422
REMARK  175  A    between atoms: _422  and  _423
REMARK  176  A    between atoms: _429  and  _431
REMARK  177  A    between atoms: _431  and  _432
REMARK  178  A    between atoms: _431  and  _434
REMARK  179  A    between atoms: _434  and  _435
REMARK  180  A    between atoms: _438  and  _440
REMARK  181  A    between atoms: _440  and  _441
REMARK  182  A    between atoms: _440  and  _443
REMARK  183  A    between atoms: _446  and  _448
REMARK  184  A    between atoms: _448  and  _449
REMARK  185  A    between atoms: _448  and  _451
REMARK  186  A    between atoms: _451  and  _452
REMARK  187  A    between atoms: _455  and  _457
REMARK  188  A    between atoms: _457  and  _458
REMARK  189  A    between atoms: _457  and  _460
REMARK  190  A    between atoms: _460  and  _461
REMARK  191  A    between atoms: _465  and  _466
REMARK  192  A    between atoms: _471  and  _473
REMARK  193  A    between atoms: _473  and  _474
REMARK  194  A    between atoms: _473  and  _476
REMARK  195  A    between atoms: _479  and  _481
REMARK  196  A    between atoms: _481  and  _482
REMARK  197  A    between atoms: _481  and  _484
REMARK  198  A    between atoms: _484  and  _485
REMARK  199  A    between atoms: _490  and  _492
REMARK  200  A    between atoms: _492  and  _493
REMARK  201  A    between atoms: _492  and  _495
REMARK  202  A    between atoms: _495  and  _496
REMARK  203  A    between atoms: _499  and  _501
REMARK  204  A    between atoms: _501  and  _502
REMARK  205  A    between atoms: _501  and  _504
REMARK  206  A    between atoms: _504  and  _505
REMARK  207  A    between atoms: _508  and  _510
REMARK  208  A    between atoms: _510  and  _511
REMARK  209  A    between atoms: _513  and  _515
REMARK  210  A    between atoms: _515  and  _516
REMARK  211  A    between atoms: _515  and  _518
REMARK  212  A    between atoms: _518  and  _519
REMARK  213  A    between atoms: _519  and  _520
REMARK  214  A    between atoms: _520  and  _521
REMARK  215  A    between atoms: _530  and  _532
REMARK  216  A    between atoms: _532  and  _533
REMARK  217  A    between atoms: _532  and  _535
REMARK  218  A    between atoms: _535  and  _536
REMARK                            x       y       z     vdW  Elec       q    Type
REMARK                         _______ _______ _______ _____ _____    ______ ____
ROOT
ATOM      1  O   HOH     1      15.141  33.625   5.148  0.00  0.00    +0.000 OA
ENDROOT
TORSDOF 0
REMARK  Name = ../refined-set-2016/3o9e/3o9e_pocket.pdb
REMARK  218 active torsions:
REMARK  status: ('A' for Active; 'I' for Inactive)
REMARK    1  A    between atoms: _1  and  _3
REMARK    2  A    between atoms: _3  and  _4
REMARK    3  A    between atoms: _3  and  _6
REMARK    4  A    between atoms: _6  and  _7
REMARK    5  A    between atoms: _7  and  _8
REMARK    6  A    between atoms: _8  and  _9
REMARK    7  A    between atoms: _18  and  _20
REMARK    8  A    between atoms: _20  and  _21
REMARK    9  A    between atoms: _20  and  _23
REMARK   10  A    between atoms: _23  and  _24
REMARK   11  A    between atoms: _27  and  _29
REMARK   12  A    between atoms: _29  and  _30
REMARK   13  A    between atoms: _29  and  _32
REMARK   14  A    between atoms: _32  and  _33
REMARK   15  A    between atoms: _36  and  _38
REMARK   16  A    between atoms: _38  and  _39
REMARK   17  A    between atoms: _38  and  _41
REMARK   18  A    between atoms: _41  and  _42
REMARK   19  A    between atoms: _45  and  _47
REMARK   20  A    between atoms: _47  and  _48
REMARK   21  A    between atoms: _47  and  _50
REMARK   22  A    between atoms: _50  and  _51
REMARK   23  A    between atoms: _54  and  _56
REMARK   24  A    between atoms: _56  and  _57
REMARK   25  A    between atoms: _59  and  _61
REMARK   26  A    between atoms: _61  and  _62
REMARK   27  A    between atoms: _65  and  _67
REMARK   28  A    between atoms: _67  and  _68
REMARK   29  A    between atoms: _67  and  _70
REMARK   30  A    between atoms: _70  and  _71
REMARK   31  A    between atoms: _74  and  _76
REMARK   32  A    between atoms: _76  and  _77
REMARK   33  A    between atoms: _76  and  _79
REMARK   34  A    between atoms: _79  and  _80
REMARK   35  A    between atoms: _83  and  _85
REMARK   36  A    between atoms: _85  and  _86
REMARK   37  A    between atoms: _85  and  _88
REMARK   38  A    between atoms: _88  and  _89
REMARK   39  A    between atoms: _92  and  _94
REMARK   40  A    between atoms: _94  and  _95
REMARK   41  A    between atoms: _94  and  _97
REMARK   42  A    between atoms: _100  and  _102
REMARK   43  A    between atoms: _102  and  _103
REMARK   44  A    between atoms: _102  and  _105
REMARK   45  A    between atoms: _105  and  _106
REMARK   46  A    between atoms: _109  and  _111
REMARK   47  A    between atoms: _111  and  _112
REMARK   48  A    between atoms: _114  and  _116
REMARK   49  A    between atoms: _116  and  _117
REMARK   50  A    between atoms: _119  and  _121
REMARK   51  A    between atoms: _121  and  _122
REMARK   52  A    between atoms: _121  and  _124
REMARK   53  A    between atoms: _124  and  _125
REMARK   54  A    between atoms: _128  and  _130
REMARK   55  A    between atoms: _130  and  _131
REMARK   56  A    between atoms: _133  and  _135
REMARK   57  A    between atoms: _135  and  _136
REMARK   58  A    between atoms: _138  and  _140
REMARK   59  A    between atoms: _140  and  _141
REMARK   60  A    between atoms: _140  and  _143
REMARK   61  A    between atoms: _143  and  _144
REMARK   62  A    between atoms: _147  and  _149
REMARK   63  A    between atoms: _149  and  _150
REMARK   64  A    between atoms: _149  and  _152
REMARK   65  A    between atoms: _152  and  _153
REMARK   66  A    between atoms: _157  and  _158
REMARK   67  A    between atoms: _163  and  _165
REMARK   68  A    between atoms: _165  and  _166
REMARK   69  A    between atoms: _165  and  _168
REMARK   70  A    between atoms: _168  and  _169
REMARK   71  A    between atoms: _173  and  _174
REMARK   72  A    between atoms: _179  and  _181
REMARK   73  A    between atoms: _181  and  _182
REMARK   74  A    between atoms: _181  and  _184
REMARK   75  A    between atoms: _187  and  _189
REMARK   76  A    between atoms: _189  and  _190
REMARK   77  A    between atoms: _189  and  _192
REMARK   78  A    between atoms: _192  and  _193
REMARK   79  A    between atoms: _198  and  _200
REMARK   80  A    between atoms: _200  and  _201
REMARK   81  A    between atoms: _200  and  _203
REMARK   82  A    between atoms: _203  and  _204
REMARK   83  A    between atoms: _207  and  _209
REMARK   84  A    between atoms: _209  and  _210
REMARK   85  A    between atoms: _209  and  _212
REMARK   86  A    between atoms: _212  and  _213
REMARK   87  A    between atoms: _216  and  _218
REMARK   88  A    between atoms: _218  and  _219
REMARK   89  A    between atoms: _221  and  _223
REMARK   90  A    between atoms: _223  and  _224
REMARK   91  A    between atoms: _223  and  _226
REMARK   92  A    between atoms: _226  and  _227
REMARK   93  A    between atoms: _227  and  _228
REMARK   94  A    between atoms: _228  and  _229
REMARK   95  A    between atoms: _238  and  _240
REMARK   96  A    between atoms: _240  and  _241
REMARK   97  A    between atoms: _240  and  _243
REMARK   98  A    between atoms: _243  and  _244
REMARK   99  A    between atoms: _249  and  _251
REMARK  100  A    between atoms: _251  and  _252
REMARK  101  A    between atoms: _251  and  _254
REMARK  102  A    between atoms: _254  and  _255
REMARK  103  A    between atoms: _255  and  _256
REMARK  104  A    between atoms: _256  and  _257
REMARK  105  A    between atoms: _266  and  _268
REMARK  106  A    between atoms: _268  and  _269
REMARK  107  A    between atoms: _268  and  _271
REMARK  108  A    between atoms: _271  and  _272
REMARK  109  A    between atoms: _275  and  _277
REMARK  110  A    between atoms: _277  and  _278
REMARK  111  A    between atoms: _277  and  _280
REMARK  112  A    between atoms: _280  and  _281
REMARK  113  A    between atoms: _284  and  _286
REMARK  114  A    between atoms: _286  and  _287
REMARK  115  A    between atoms: _286  and  _289
REMARK  116  A    between atoms: _289  and  _290
REMARK  117  A    between atoms: _293  and  _295
REMARK  118  A    between atoms: _295  and  _296
REMARK  119  A    between atoms: _295  and  _298
REMARK  120  A    between atoms: _298  and  _299
REMARK  121  A    between atoms: _302  and  _304
REMARK  122  A    between atoms: _304  and  _305
REMARK  123  A    between atoms: _307  and  _309
REMARK  124  A    between atoms: _309  and  _310
REMARK  125  A    between atoms: _313  and  _315
REMARK  126  A    between atoms: _315  and  _316
REMARK  127  A    between atoms: _315  and  _318
REMARK  128  A    between atoms: _318  and  _319
REMARK  129  A    between atoms: _322  and  _324
REMARK  130  A    between atoms: _324  and  _325
REMARK  131  A    between atoms: _324  and  _327
REMARK  132  A    between atoms: _327  and  _328
REMARK  133  A    between atoms: _331  and  _333
REMARK  134  A    between atoms: _333  and  _334
REMARK  135  A    between atoms: _333  and  _336
REMARK  136  A    between atoms: _336  and  _337
REMARK  137  A    between atoms: _340  and  _342
REMARK  138  A    between atoms: _342  and  _343
REMARK  139  A    between atoms: _342  and  _345
REMARK  140  A    between atoms: _348  and  _350
REMARK  141  A    between atoms: _350  and  _351
REMARK  142  A    between atoms: _350  and  _353
REMARK  143  A    between atoms: _353  and  _354
REMARK  144  A    between atoms: _357  and  _359
REMARK  145  A    between atoms: _359  and  _360
REMARK  146  A    between atoms: _359  and  _362
REMARK  147  A    between atoms: _362  and  _363
REMARK  148  A    between atoms: _363  and  _364
REMARK  149  A    between atoms: _364  and  _365
REMARK  150  A    between atoms: _365  and  _366
REMARK  151  A    between atoms: _370  and  _372
REMARK  152  A    between atoms: _372  and  _373
REMARK  153  A    between atoms: _372  and  _375
REMARK  154  A    between atoms: _375  and  _376
REMARK  155  A    between atoms: _376  and  _377
REMARK  156  A    between atoms: _379  and  _381
REMARK  157  A    between atoms: _381  and  _382
REMARK  158  A    between atoms: _381  and  _384
REMARK  159  A    between atoms: _384  and  _385
REMARK  160  A    between atoms: _388  and  _390
REMARK  161  A    between atoms: _390  and  _391
REMARK  162  A    between atoms: _393  and  _395
REMARK  163  A    between atoms: _395  and  _396
REMARK  164  A    between atoms: _398  and  _400
REMARK  165  A    between atoms: _400  and  _401
REMARK  166  A    between atoms: _400  and  _403
REMARK  167  A    between atoms: _403  and  _404
REMARK  168  A    between atoms: _407  and  _409
REMARK  169  A    between atoms: _409  and  _410
REMARK  170  A    between atoms: _412  and  _414
REMARK  171  A    between atoms: _414  and  _415
REMARK  172  A    between atoms: _417  and  _419
REMARK  173  A    between atoms: _419  and  _420
REMARK  174  A    between atoms: _419  and  _422
REMARK  175  A    between atoms: _422  and  _423
REMARK  176  A    between atoms: _429  and  _431
REMARK  177  A    between atoms: _431  and  _432
REMARK  178  A    between atoms: _431  and  _434
REMARK  179  A    between atoms: _434  and  _435
REMARK  180  A    between atoms: _438  and  _440
REMARK  181  A    between atoms: _440  and  _441
REMARK  182  A    between atoms: _440  and  _443
REMARK  183  A    between atoms: _446  and  _448
REMARK  184  A    between atoms: _448  and  _449
REMARK  185  A    between atoms: _448  and  _451
REMARK  186  A    between atoms: _451  and  _452
REMARK  187  A    between atoms: _455  and  _457
REMARK  188  A    between atoms: _457  and  _458
REMARK  189  A    between atoms: _457  and  _460
REMARK  190  A    between atoms: _460  and  _461
REMARK  191  A    between atoms: _465  and  _466
REMARK  192  A    between atoms: _471  and  _473
REMARK  193  A    between atoms: _473  and  _474
REMARK  194  A    between atoms: _473  and  _476
REMARK  195  A    between atoms: _479  and  _481
REMARK  196  A    between atoms: _481  and  _482
REMARK  197  A    between atoms: _481  and  _484
REMARK  198  A    between atoms: _484  and  _485
REMARK  199  A    between atoms: _490  and  _492
REMARK  200  A    between atoms: _492  and  _493
REMARK  201  A    between atoms: _492  and  _495
REMARK  202  A    between atoms: _495  and  _496
REMARK  203  A    between atoms: _499  and  _501
REMARK  204  A    between atoms: _501  and  _502
REMARK  205  A    between atoms: _501  and  _504
REMARK  206  A    between atoms: _504  and  _505
REMARK  207  A    between atoms: _508  and  _510
REMARK  208  A    between atoms: _510  and  _511
REMARK  209  A    between atoms: _513  and  _515
REMARK  210  A    between atoms: _515  and  _516
REMARK  211  A    between atoms: _515  and  _518
REMARK  212  A    between atoms: _518  and  _519
REMARK  213  A    between atoms: _519  and  _520
REMARK  214  A    between atoms: _520  and  _521
REMARK  215  A    between atoms: _530  and  _532
REMARK  216  A    between atoms: _532  and  _533
REMARK  217  A    between atoms: _532  and  _535
REMARK  218  A    between atoms: _535  and  _536
REMARK                            x       y       z     vdW  Elec       q    Type
REMARK                         _______ _______ _______ _____ _____    ______ ____
ROOT
ATOM      1  O   HOH     1      26.080  18.654  13.341  0.00  0.00    +0.000 OA
ENDROOT
TORSDOF 0
REMARK  Name = ../refined-set-2016/3o9e/3o9e_pocket.pdb
REMARK  218 active torsions:
REMARK  status: ('A' for Active; 'I' for Inactive)
REMARK    1  A    between atoms: _1  and  _3
REMARK    2  A    between atoms: _3  and  _4
REMARK    3  A    between atoms: _3  and  _6
REMARK    4  A    between atoms: _6  and  _7
REMARK    5  A    between atoms: _7  and  _8
REMARK    6  A    between atoms: _8  and  _9
REMARK    7  A    between atoms: _18  and  _20
REMARK    8  A    between atoms: _20  and  _21
REMARK    9  A    between atoms: _20  and  _23
REMARK   10  A    between atoms: _23  and  _24
REMARK   11  A    between atoms: _27  and  _29
REMARK   12  A    between atoms: _29  and  _30
REMARK   13  A    between atoms: _29  and  _32
REMARK   14  A    between atoms: _32  and  _33
REMARK   15  A    between atoms: _36  and  _38
REMARK   16  A    between atoms: _38  and  _39
REMARK   17  A    between atoms: _38  and  _41
REMARK   18  A    between atoms: _41  and  _42
REMARK   19  A    between atoms: _45  and  _47
REMARK   20  A    between atoms: _47  and  _48
REMARK   21  A    between atoms: _47  and  _50
REMARK   22  A    between atoms: _50  and  _51
REMARK   23  A    between atoms: _54  and  _56
REMARK   24  A    between atoms: _56  and  _57
REMARK   25  A    between atoms: _59  and  _61
REMARK   26  A    between atoms: _61  and  _62
REMARK   27  A    between atoms: _65  and  _67
REMARK   28  A    between atoms: _67  and  _68
REMARK   29  A    between atoms: _67  and  _70
REMARK   30  A    between atoms: _70  and  _71
REMARK   31  A    between atoms: _74  and  _76
REMARK   32  A    between atoms: _76  and  _77
REMARK   33  A    between atoms: _76  and  _79
REMARK   34  A    between atoms: _79  and  _80
REMARK   35  A    between atoms: _83  and  _85
REMARK   36  A    between atoms: _85  and  _86
REMARK   37  A    between atoms: _85  and  _88
REMARK   38  A    between atoms: _88  and  _89
REMARK   39  A    between atoms: _92  and  _94
REMARK   40  A    between atoms: _94  and  _95
REMARK   41  A    between atoms: _94  and  _97
REMARK   42  A    between atoms: _100  and  _102
REMARK   43  A    between atoms: _102  and  _103
REMARK   44  A    between atoms: _102  and  _105
REMARK   45  A    between atoms: _105  and  _106
REMARK   46  A    between atoms: _109  and  _111
REMARK   47  A    between atoms: _111  and  _112
REMARK   48  A    between atoms: _114  and  _116
REMARK   49  A    between atoms: _116  and  _117
REMARK   50  A    between atoms: _119  and  _121
REMARK   51  A    between atoms: _121  and  _122
REMARK   52  A    between atoms: _121  and  _124
REMARK   53  A    between atoms: _124  and  _125
REMARK   54  A    between atoms: _128  and  _130
REMARK   55  A    between atoms: _130  and  _131
REMARK   56  A    between atoms: _133  and  _135
REMARK   57  A    between atoms: _135  and  _136
REMARK   58  A    between atoms: _138  and  _140
REMARK   59  A    between atoms: _140  and  _141
REMARK   60  A    between atoms: _140  and  _143
REMARK   61  A    between atoms: _143  and  _144
REMARK   62  A    between atoms: _147  and  _149
REMARK   63  A    between atoms: _149  and  _150
REMARK   64  A    between atoms: _149  and  _152
REMARK   65  A    between atoms: _152  and  _153
REMARK   66  A    between atoms: _157  and  _158
REMARK   67  A    between atoms: _163  and  _165
REMARK   68  A    between atoms: _165  and  _166
REMARK   69  A    between atoms: _165  and  _168
REMARK   70  A    between atoms: _168  and  _169
REMARK   71  A    between atoms: _173  and  _174
REMARK   72  A    between atoms: _179  and  _181
REMARK   73  A    between atoms: _181  and  _182
REMARK   74  A    between atoms: _181  and  _184
REMARK   75  A    between atoms: _187  and  _189
REMARK   76  A    between atoms: _189  and  _190
REMARK   77  A    between atoms: _189  and  _192
REMARK   78  A    between atoms: _192  and  _193
REMARK   79  A    between atoms: _198  and  _200
REMARK   80  A    between atoms: _200  and  _201
REMARK   81  A    between atoms: _200  and  _203
REMARK   82  A    between atoms: _203  and  _204
REMARK   83  A    between atoms: _207  and  _209
REMARK   84  A    between atoms: _209  and  _210
REMARK   85  A    between atoms: _209  and  _212
REMARK   86  A    between atoms: _212  and  _213
REMARK   87  A    between atoms: _216  and  _218
REMARK   88  A    between atoms: _218  and  _219
REMARK   89  A    between atoms: _221  and  _223
REMARK   90  A    between atoms: _223  and  _224
REMARK   91  A    between atoms: _223  and  _226
REMARK   92  A    between atoms: _226  and  _227
REMARK   93  A    between atoms: _227  and  _228
REMARK   94  A    between atoms: _228  and  _229
REMARK   95  A    between atoms: _238  and  _240
REMARK   96  A    between atoms: _240  and  _241
REMARK   97  A    between atoms: _240  and  _243
REMARK   98  A    between atoms: _243  and  _244
REMARK   99  A    between atoms: _249  and  _251
REMARK  100  A    between atoms: _251  and  _252
REMARK  101  A    between atoms: _251  and  _254
REMARK  102  A    between atoms: _254  and  _255
REMARK  103  A    between atoms: _255  and  _256
REMARK  104  A    between atoms: _256  and  _257
REMARK  105  A    between atoms: _266  and  _268
REMARK  106  A    between atoms: _268  and  _269
REMARK  107  A    between atoms: _268  and  _271
REMARK  108  A    between atoms: _271  and  _272
REMARK  109  A    between atoms: _275  and  _277
REMARK  110  A    between atoms: _277  and  _278
REMARK  111  A    between atoms: _277  and  _280
REMARK  112  A    between atoms: _280  and  _281
REMARK  113  A    between atoms: _284  and  _286
REMARK  114  A    between atoms: _286  and  _287
REMARK  115  A    between atoms: _286  and  _289
REMARK  116  A    between atoms: _289  and  _290
REMARK  117  A    between atoms: _293  and  _295
REMARK  118  A    between atoms: _295  and  _296
REMARK  119  A    between atoms: _295  and  _298
REMARK  120  A    between atoms: _298  and  _299
REMARK  121  A    between atoms: _302  and  _304
REMARK  122  A    between atoms: _304  and  _305
REMARK  123  A    between atoms: _307  and  _309
REMARK  124  A    between atoms: _309  and  _310
REMARK  125  A    between atoms: _313  and  _315
REMARK  126  A    between atoms: _315  and  _316
REMARK  127  A    between atoms: _315  and  _318
REMARK  128  A    between atoms: _318  and  _319
REMARK  129  A    between atoms: _322  and  _324
REMARK  130  A    between atoms: _324  and  _325
REMARK  131  A    between atoms: _324  and  _327
REMARK  132  A    between atoms: _327  and  _328
REMARK  133  A    between atoms: _331  and  _333
REMARK  134  A    between atoms: _333  and  _334
REMARK  135  A    between atoms: _333  and  _336
REMARK  136  A    between atoms: _336  and  _337
REMARK  137  A    between atoms: _340  and  _342
REMARK  138  A    between atoms: _342  and  _343
REMARK  139  A    between atoms: _342  and  _345
REMARK  140  A    between atoms: _348  and  _350
REMARK  141  A    between atoms: _350  and  _351
REMARK  142  A    between atoms: _350  and  _353
REMARK  143  A    between atoms: _353  and  _354
REMARK  144  A    between atoms: _357  and  _359
REMARK  145  A    between atoms: _359  and  _360
REMARK  146  A    between atoms: _359  and  _362
REMARK  147  A    between atoms: _362  and  _363
REMARK  148  A    between atoms: _363  and  _364
REMARK  149  A    between atoms: _364  and  _365
REMARK  150  A    between atoms: _365  and  _366
REMARK  151  A    between atoms: _370  and  _372
REMARK  152  A    between atoms: _372  and  _373
REMARK  153  A    between atoms: _372  and  _375
REMARK  154  A    between atoms: _375  and  _376
REMARK  155  A    between atoms: _376  and  _377
REMARK  156  A    between atoms: _379  and  _381
REMARK  157  A    between atoms: _381  and  _382
REMARK  158  A    between atoms: _381  and  _384
REMARK  159  A    between atoms: _384  and  _385
REMARK  160  A    between atoms: _388  and  _390
REMARK  161  A    between atoms: _390  and  _391
REMARK  162  A    between atoms: _393  and  _395
REMARK  163  A    between atoms: _395  and  _396
REMARK  164  A    between atoms: _398  and  _400
REMARK  165  A    between atoms: _400  and  _401
REMARK  166  A    between atoms: _400  and  _403
REMARK  167  A    between atoms: _403  and  _404
REMARK  168  A    between atoms: _407  and  _409
REMARK  169  A    between atoms: _409  and  _410
REMARK  170  A    between atoms: _412  and  _414
REMARK  171  A    between atoms: _414  and  _415
REMARK  172  A    between atoms: _417  and  _419
REMARK  173  A    between atoms: _419  and  _420
REMARK  174  A    between atoms: _419  and  _422
REMARK  175  A    between atoms: _422  and  _423
REMARK  176  A    between atoms: _429  and  _431
REMARK  177  A    between atoms: _431  and  _432
REMARK  178  A    between atoms: _431  and  _434
REMARK  179  A    between atoms: _434  and  _435
REMARK  180  A    between atoms: _438  and  _440
REMARK  181  A    between atoms: _440  and  _441
REMARK  182  A    between atoms: _440  and  _443
REMARK  183  A    between atoms: _446  and  _448
REMARK  184  A    between atoms: _448  and  _449
REMARK  185  A    between atoms: _448  and  _451
REMARK  186  A    between atoms: _451  and  _452
REMARK  187  A    between atoms: _455  and  _457
REMARK  188  A    between atoms: _457  and  _458
REMARK  189  A    between atoms: _457  and  _460
REMARK  190  A    between atoms: _460  and  _461
REMARK  191  A    between atoms: _465  and  _466
REMARK  192  A    between atoms: _471  and  _473
REMARK  193  A    between atoms: _473  and  _474
REMARK  194  A    between atoms: _473  and  _476
REMARK  195  A    between atoms: _479  and  _481
REMARK  196  A    between atoms: _481  and  _482
REMARK  197  A    between atoms: _481  and  _484
REMARK  198  A    between atoms: _484  and  _485
REMARK  199  A    between atoms: _490  and  _492
REMARK  200  A    between atoms: _492  and  _493
REMARK  201  A    between atoms: _492  and  _495
REMARK  202  A    between atoms: _495  and  _496
REMARK  203  A    between atoms: _499  and  _501
REMARK  204  A    between atoms: _501  and  _502
REMARK  205  A    between atoms: _501  and  _504
REMARK  206  A    between atoms: _504  and  _505
REMARK  207  A    between atoms: _508  and  _510
REMARK  208  A    between atoms: _510  and  _511
REMARK  209  A    between atoms: _513  and  _515
REMARK  210  A    between atoms: _515  and  _516
REMARK  211  A    between atoms: _515  and  _518
REMARK  212  A    between atoms: _518  and  _519
REMARK  213  A    between atoms: _519  and  _520
REMARK  214  A    between atoms: _520  and  _521
REMARK  215  A    between atoms: _530  and  _532
REMARK  216  A    between atoms: _532  and  _533
REMARK  217  A    between atoms: _532  and  _535
REMARK  218  A    between atoms: _535  and  _536
REMARK                            x       y       z     vdW  Elec       q    Type
REMARK                         _______ _______ _______ _____ _____    ______ ____
ROOT
ATOM      1  O   HOH     1      15.471  30.931   4.097  0.00  0.00    +0.000 OA
ENDROOT
TORSDOF 0
REMARK  Name = ../refined-set-2016/3o9e/3o9e_pocket.pdb
REMARK  218 active torsions:
REMARK  status: ('A' for Active; 'I' for Inactive)
REMARK    1  A    between atoms: _1  and  _3
REMARK    2  A    between atoms: _3  and  _4
REMARK    3  A    between atoms: _3  and  _6
REMARK    4  A    between atoms: _6  and  _7
REMARK    5  A    between atoms: _7  and  _8
REMARK    6  A    between atoms: _8  and  _9
REMARK    7  A    between atoms: _18  and  _20
REMARK    8  A    between atoms: _20  and  _21
REMARK    9  A    between atoms: _20  and  _23
REMARK   10  A    between atoms: _23  and  _24
REMARK   11  A    between atoms: _27  and  _29
REMARK   12  A    between atoms: _29  and  _30
REMARK   13  A    between atoms: _29  and  _32
REMARK   14  A    between atoms: _32  and  _33
REMARK   15  A    between atoms: _36  and  _38
REMARK   16  A    between atoms: _38  and  _39
REMARK   17  A    between atoms: _38  and  _41
REMARK   18  A    between atoms: _41  and  _42
REMARK   19  A    between atoms: _45  and  _47
REMARK   20  A    between atoms: _47  and  _48
REMARK   21  A    between atoms: _47  and  _50
REMARK   22  A    between atoms: _50  and  _51
REMARK   23  A    between atoms: _54  and  _56
REMARK   24  A    between atoms: _56  and  _57
REMARK   25  A    between atoms: _59  and  _61
REMARK   26  A    between atoms: _61  and  _62
REMARK   27  A    between atoms: _65  and  _67
REMARK   28  A    between atoms: _67  and  _68
REMARK   29  A    between atoms: _67  and  _70
REMARK   30  A    between atoms: _70  and  _71
REMARK   31  A    between atoms: _74  and  _76
REMARK   32  A    between atoms: _76  and  _77
REMARK   33  A    between atoms: _76  and  _79
REMARK   34  A    between atoms: _79  and  _80
REMARK   35  A    between atoms: _83  and  _85
REMARK   36  A    between atoms: _85  and  _86
REMARK   37  A    between atoms: _85  and  _88
REMARK   38  A    between atoms: _88  and  _89
REMARK   39  A    between atoms: _92  and  _94
REMARK   40  A    between atoms: _94  and  _95
REMARK   41  A    between atoms: _94  and  _97
REMARK   42  A    between atoms: _100  and  _102
REMARK   43  A    between atoms: _102  and  _103
REMARK   44  A    between atoms: _102  and  _105
REMARK   45  A    between atoms: _105  and  _106
REMARK   46  A    between atoms: _109  and  _111
REMARK   47  A    between atoms: _111  and  _112
REMARK   48  A    between atoms: _114  and  _116
REMARK   49  A    between atoms: _116  and  _117
REMARK   50  A    between atoms: _119  and  _121
REMARK   51  A    between atoms: _121  and  _122
REMARK   52  A    between atoms: _121  and  _124
REMARK   53  A    between atoms: _124  and  _125
REMARK   54  A    between atoms: _128  and  _130
REMARK   55  A    between atoms: _130  and  _131
REMARK   56  A    between atoms: _133  and  _135
REMARK   57  A    between atoms: _135  and  _136
REMARK   58  A    between atoms: _138  and  _140
REMARK   59  A    between atoms: _140  and  _141
REMARK   60  A    between atoms: _140  and  _143
REMARK   61  A    between atoms: _143  and  _144
REMARK   62  A    between atoms: _147  and  _149
REMARK   63  A    between atoms: _149  and  _150
REMARK   64  A    between atoms: _149  and  _152
REMARK   65  A    between atoms: _152  and  _153
REMARK   66  A    between atoms: _157  and  _158
REMARK   67  A    between atoms: _163  and  _165
REMARK   68  A    between atoms: _165  and  _166
REMARK   69  A    between atoms: _165  and  _168
REMARK   70  A    between atoms: _168  and  _169
REMARK   71  A    between atoms: _173  and  _174
REMARK   72  A    between atoms: _179  and  _181
REMARK   73  A    between atoms: _181  and  _182
REMARK   74  A    between atoms: _181  and  _184
REMARK   75  A    between atoms: _187  and  _189
REMARK   76  A    between atoms: _189  and  _190
REMARK   77  A    between atoms: _189  and  _192
REMARK   78  A    between atoms: _192  and  _193
REMARK   79  A    between atoms: _198  and  _200
REMARK   80  A    between atoms: _200  and  _201
REMARK   81  A    between atoms: _200  and  _203
REMARK   82  A    between atoms: _203  and  _204
REMARK   83  A    between atoms: _207  and  _209
REMARK   84  A    between atoms: _209  and  _210
REMARK   85  A    between atoms: _209  and  _212
REMARK   86  A    between atoms: _212  and  _213
REMARK   87  A    between atoms: _216  and  _218
REMARK   88  A    between atoms: _218  and  _219
REMARK   89  A    between atoms: _221  and  _223
REMARK   90  A    between atoms: _223  and  _224
REMARK   91  A    between atoms: _223  and  _226
REMARK   92  A    between atoms: _226  and  _227
REMARK   93  A    between atoms: _227  and  _228
REMARK   94  A    between atoms: _228  and  _229
REMARK   95  A    between atoms: _238  and  _240
REMARK   96  A    between atoms: _240  and  _241
REMARK   97  A    between atoms: _240  and  _243
REMARK   98  A    between atoms: _243  and  _244
REMARK   99  A    between atoms: _249  and  _251
REMARK  100  A    between atoms: _251  and  _252
REMARK  101  A    between atoms: _251  and  _254
REMARK  102  A    between atoms: _254  and  _255
REMARK  103  A    between atoms: _255  and  _256
REMARK  104  A    between atoms: _256  and  _257
REMARK  105  A    between atoms: _266  and  _268
REMARK  106  A    between atoms: _268  and  _269
REMARK  107  A    between atoms: _268  and  _271
REMARK  108  A    between atoms: _271  and  _272
REMARK  109  A    between atoms: _275  and  _277
REMARK  110  A    between atoms: _277  and  _278
REMARK  111  A    between atoms: _277  and  _280
REMARK  112  A    between atoms: _280  and  _281
REMARK  113  A    between atoms: _284  and  _286
REMARK  114  A    between atoms: _286  and  _287
REMARK  115  A    between atoms: _286  and  _289
REMARK  116  A    between atoms: _289  and  _290
REMARK  117  A    between atoms: _293  and  _295
REMARK  118  A    between atoms: _295  and  _296
REMARK  119  A    between atoms: _295  and  _298
REMARK  120  A    between atoms: _298  and  _299
REMARK  121  A    between atoms: _302  and  _304
REMARK  122  A    between atoms: _304  and  _305
REMARK  123  A    between atoms: _307  and  _309
REMARK  124  A    between atoms: _309  and  _310
REMARK  125  A    between atoms: _313  and  _315
REMARK  126  A    between atoms: _315  and  _316
REMARK  127  A    between atoms: _315  and  _318
REMARK  128  A    between atoms: _318  and  _319
REMARK  129  A    between atoms: _322  and  _324
REMARK  130  A    between atoms: _324  and  _325
REMARK  131  A    between atoms: _324  and  _327
REMARK  132  A    between atoms: _327  and  _328
REMARK  133  A    between atoms: _331  and  _333
REMARK  134  A    between atoms: _333  and  _334
REMARK  135  A    between atoms: _333  and  _336
REMARK  136  A    between atoms: _336  and  _337
REMARK  137  A    between atoms: _340  and  _342
REMARK  138  A    between atoms: _342  and  _343
REMARK  139  A    between atoms: _342  and  _345
REMARK  140  A    between atoms: _348  and  _350
REMARK  141  A    between atoms: _350  and  _351
REMARK  142  A    between atoms: _350  and  _353
REMARK  143  A    between atoms: _353  and  _354
REMARK  144  A    between atoms: _357  and  _359
REMARK  145  A    between atoms: _359  and  _360
REMARK  146  A    between atoms: _359  and  _362
REMARK  147  A    between atoms: _362  and  _363
REMARK  148  A    between atoms: _363  and  _364
REMARK  149  A    between atoms: _364  and  _365
REMARK  150  A    between atoms: _365  and  _366
REMARK  151  A    between atoms: _370  and  _372
REMARK  152  A    between atoms: _372  and  _373
REMARK  153  A    between atoms: _372  and  _375
REMARK  154  A    between atoms: _375  and  _376
REMARK  155  A    between atoms: _376  and  _377
REMARK  156  A    between atoms: _379  and  _381
REMARK  157  A    between atoms: _381  and  _382
REMARK  158  A    between atoms: _381  and  _384
REMARK  159  A    between atoms: _384  and  _385
REMARK  160  A    between atoms: _388  and  _390
REMARK  161  A    between atoms: _390  and  _391
REMARK  162  A    between atoms: _393  and  _395
REMARK  163  A    between atoms: _395  and  _396
REMARK  164  A    between atoms: _398  and  _400
REMARK  165  A    between atoms: _400  and  _401
REMARK  166  A    between atoms: _400  and  _403
REMARK  167  A    between atoms: _403  and  _404
REMARK  168  A    between atoms: _407  and  _409
REMARK  169  A    between atoms: _409  and  _410
REMARK  170  A    between atoms: _412  and  _414
REMARK  171  A    between atoms: _414  and  _415
REMARK  172  A    between atoms: _417  and  _419
REMARK  173  A    between atoms: _419  and  _420
REMARK  174  A    between atoms: _419  and  _422
REMARK  175  A    between atoms: _422  and  _423
REMARK  176  A    between atoms: _429  and  _431
REMARK  177  A    between atoms: _431  and  _432
REMARK  178  A    between atoms: _431  and  _434
REMARK  179  A    between atoms: _434  and  _435
REMARK  180  A    between atoms: _438  and  _440
REMARK  181  A    between atoms: _440  and  _441
REMARK  182  A    between atoms: _440  and  _443
REMARK  183  A    between atoms: _446  and  _448
REMARK  184  A    between atoms: _448  and  _449
REMARK  185  A    between atoms: _448  and  _451
REMARK  186  A    between atoms: _451  and  _452
REMARK  187  A    between atoms: _455  and  _457
REMARK  188  A    between atoms: _457  and  _458
REMARK  189  A    between atoms: _457  and  _460
REMARK  190  A    between atoms: _460  and  _461
REMARK  191  A    between atoms: _465  and  _466
REMARK  192  A    between atoms: _471  and  _473
REMARK  193  A    between atoms: _473  and  _474
REMARK  194  A    between atoms: _473  and  _476
REMARK  195  A    between atoms: _479  and  _481
REMARK  196  A    between atoms: _481  and  _482
REMARK  197  A    between atoms: _481  and  _484
REMARK  198  A    between atoms: _484  and  _485
REMARK  199  A    between atoms: _490  and  _492
REMARK  200  A    between atoms: _492  and  _493
REMARK  201  A    between atoms: _492  and  _495
REMARK  202  A    between atoms: _495  and  _496
REMARK  203  A    between atoms: _499  and  _501
REMARK  204  A    between atoms: _501  and  _502
REMARK  205  A    between atoms: _501  and  _504
REMARK  206  A    between atoms: _504  and  _505
REMARK  207  A    between atoms: _508  and  _510
REMARK  208  A    between atoms: _510  and  _511
REMARK  209  A    between atoms: _513  and  _515
REMARK  210  A    between atoms: _515  and  _516
REMARK  211  A    between atoms: _515  and  _518
REMARK  212  A    between atoms: _518  and  _519
REMARK  213  A    between atoms: _519  and  _520
REMARK  214  A    between atoms: _520  and  _521
REMARK  215  A    between atoms: _530  and  _532
REMARK  216  A    between atoms: _532  and  _533
REMARK  217  A    between atoms: _532  and  _535
REMARK  218  A    between atoms: _535  and  _536
REMARK                            x       y       z     vdW  Elec       q    Type
REMARK                         _______ _______ _______ _____ _____    ______ ____
ROOT
ATOM      1  O   HOH     1      30.323  21.420  10.861  0.00  0.00    +0.000 OA
ENDROOT
TORSDOF 0
REMARK  Name = ../refined-set-2016/3o9e/3o9e_pocket.pdb
REMARK  218 active torsions:
REMARK  status: ('A' for Active; 'I' for Inactive)
REMARK    1  A    between atoms: _1  and  _3
REMARK    2  A    between atoms: _3  and  _4
REMARK    3  A    between atoms: _3  and  _6
REMARK    4  A    between atoms: _6  and  _7
REMARK    5  A    between atoms: _7  and  _8
REMARK    6  A    between atoms: _8  and  _9
REMARK    7  A    between atoms: _18  and  _20
REMARK    8  A    between atoms: _20  and  _21
REMARK    9  A    between atoms: _20  and  _23
REMARK   10  A    between atoms: _23  and  _24
REMARK   11  A    between atoms: _27  and  _29
REMARK   12  A    between atoms: _29  and  _30
REMARK   13  A    between atoms: _29  and  _32
REMARK   14  A    between atoms: _32  and  _33
REMARK   15  A    between atoms: _36  and  _38
REMARK   16  A    between atoms: _38  and  _39
REMARK   17  A    between atoms: _38  and  _41
REMARK   18  A    between atoms: _41  and  _42
REMARK   19  A    between atoms: _45  and  _47
REMARK   20  A    between atoms: _47  and  _48
REMARK   21  A    between atoms: _47  and  _50
REMARK   22  A    between atoms: _50  and  _51
REMARK   23  A    between atoms: _54  and  _56
REMARK   24  A    between atoms: _56  and  _57
REMARK   25  A    between atoms: _59  and  _61
REMARK   26  A    between atoms: _61  and  _62
REMARK   27  A    between atoms: _65  and  _67
REMARK   28  A    between atoms: _67  and  _68
REMARK   29  A    between atoms: _67  and  _70
REMARK   30  A    between atoms: _70  and  _71
REMARK   31  A    between atoms: _74  and  _76
REMARK   32  A    between atoms: _76  and  _77
REMARK   33  A    between atoms: _76  and  _79
REMARK   34  A    between atoms: _79  and  _80
REMARK   35  A    between atoms: _83  and  _85
REMARK   36  A    between atoms: _85  and  _86
REMARK   37  A    between atoms: _85  and  _88
REMARK   38  A    between atoms: _88  and  _89
REMARK   39  A    between atoms: _92  and  _94
REMARK   40  A    between atoms: _94  and  _95
REMARK   41  A    between atoms: _94  and  _97
REMARK   42  A    between atoms: _100  and  _102
REMARK   43  A    between atoms: _102  and  _103
REMARK   44  A    between atoms: _102  and  _105
REMARK   45  A    between atoms: _105  and  _106
REMARK   46  A    between atoms: _109  and  _111
REMARK   47  A    between atoms: _111  and  _112
REMARK   48  A    between atoms: _114  and  _116
REMARK   49  A    between atoms: _116  and  _117
REMARK   50  A    between atoms: _119  and  _121
REMARK   51  A    between atoms: _121  and  _122
REMARK   52  A    between atoms: _121  and  _124
REMARK   53  A    between atoms: _124  and  _125
REMARK   54  A    between atoms: _128  and  _130
REMARK   55  A    between atoms: _130  and  _131
REMARK   56  A    between atoms: _133  and  _135
REMARK   57  A    between atoms: _135  and  _136
REMARK   58  A    between atoms: _138  and  _140
REMARK   59  A    between atoms: _140  and  _141
REMARK   60  A    between atoms: _140  and  _143
REMARK   61  A    between atoms: _143  and  _144
REMARK   62  A    between atoms: _147  and  _149
REMARK   63  A    between atoms: _149  and  _150
REMARK   64  A    between atoms: _149  and  _152
REMARK   65  A    between atoms: _152  and  _153
REMARK   66  A    between atoms: _157  and  _158
REMARK   67  A    between atoms: _163  and  _165
REMARK   68  A    between atoms: _165  and  _166
REMARK   69  A    between atoms: _165  and  _168
REMARK   70  A    between atoms: _168  and  _169
REMARK   71  A    between atoms: _173  and  _174
REMARK   72  A    between atoms: _179  and  _181
REMARK   73  A    between atoms: _181  and  _182
REMARK   74  A    between atoms: _181  and  _184
REMARK   75  A    between atoms: _187  and  _189
REMARK   76  A    between atoms: _189  and  _190
REMARK   77  A    between atoms: _189  and  _192
REMARK   78  A    between atoms: _192  and  _193
REMARK   79  A    between atoms: _198  and  _200
REMARK   80  A    between atoms: _200  and  _201
REMARK   81  A    between atoms: _200  and  _203
REMARK   82  A    between atoms: _203  and  _204
REMARK   83  A    between atoms: _207  and  _209
REMARK   84  A    between atoms: _209  and  _210
REMARK   85  A    between atoms: _209  and  _212
REMARK   86  A    between atoms: _212  and  _213
REMARK   87  A    between atoms: _216  and  _218
REMARK   88  A    between atoms: _218  and  _219
REMARK   89  A    between atoms: _221  and  _223
REMARK   90  A    between atoms: _223  and  _224
REMARK   91  A    between atoms: _223  and  _226
REMARK   92  A    between atoms: _226  and  _227
REMARK   93  A    between atoms: _227  and  _228
REMARK   94  A    between atoms: _228  and  _229
REMARK   95  A    between atoms: _238  and  _240
REMARK   96  A    between atoms: _240  and  _241
REMARK   97  A    between atoms: _240  and  _243
REMARK   98  A    between atoms: _243  and  _244
REMARK   99  A    between atoms: _249  and  _251
REMARK  100  A    between atoms: _251  and  _252
REMARK  101  A    between atoms: _251  and  _254
REMARK  102  A    between atoms: _254  and  _255
REMARK  103  A    between atoms: _255  and  _256
REMARK  104  A    between atoms: _256  and  _257
REMARK  105  A    between atoms: _266  and  _268
REMARK  106  A    between atoms: _268  and  _269
REMARK  107  A    between atoms: _268  and  _271
REMARK  108  A    between atoms: _271  and  _272
REMARK  109  A    between atoms: _275  and  _277
REMARK  110  A    between atoms: _277  and  _278
REMARK  111  A    between atoms: _277  and  _280
REMARK  112  A    between atoms: _280  and  _281
REMARK  113  A    between atoms: _284  and  _286
REMARK  114  A    between atoms: _286  and  _287
REMARK  115  A    between atoms: _286  and  _289
REMARK  116  A    between atoms: _289  and  _290
REMARK  117  A    between atoms: _293  and  _295
REMARK  118  A    between atoms: _295  and  _296
REMARK  119  A    between atoms: _295  and  _298
REMARK  120  A    between atoms: _298  and  _299
REMARK  121  A    between atoms: _302  and  _304
REMARK  122  A    between atoms: _304  and  _305
REMARK  123  A    between atoms: _307  and  _309
REMARK  124  A    between atoms: _309  and  _310
REMARK  125  A    between atoms: _313  and  _315
REMARK  126  A    between atoms: _315  and  _316
REMARK  127  A    between atoms: _315  and  _318
REMARK  128  A    between atoms: _318  and  _319
REMARK  129  A    between atoms: _322  and  _324
REMARK  130  A    between atoms: _324  and  _325
REMARK  131  A    between atoms: _324  and  _327
REMARK  132  A    between atoms: _327  and  _328
REMARK  133  A    between atoms: _331  and  _333
REMARK  134  A    between atoms: _333  and  _334
REMARK  135  A    between atoms: _333  and  _336
REMARK  136  A    between atoms: _336  and  _337
REMARK  137  A    between atoms: _340  and  _342
REMARK  138  A    between atoms: _342  and  _343
REMARK  139  A    between atoms: _342  and  _345
REMARK  140  A    between atoms: _348  and  _350
REMARK  141  A    between atoms: _350  and  _351
REMARK  142  A    between atoms: _350  and  _353
REMARK  143  A    between atoms: _353  and  _354
REMARK  144  A    between atoms: _357  and  _359
REMARK  145  A    between atoms: _359  and  _360
REMARK  146  A    between atoms: _359  and  _362
REMARK  147  A    between atoms: _362  and  _363
REMARK  148  A    between atoms: _363  and  _364
REMARK  149  A    between atoms: _364  and  _365
REMARK  150  A    between atoms: _365  and  _366
REMARK  151  A    between atoms: _370  and  _372
REMARK  152  A    between atoms: _372  and  _373
REMARK  153  A    between atoms: _372  and  _375
REMARK  154  A    between atoms: _375  and  _376
REMARK  155  A    between atoms: _376  and  _377
REMARK  156  A    between atoms: _379  and  _381
REMARK  157  A    between atoms: _381  and  _382
REMARK  158  A    between atoms: _381  and  _384
REMARK  159  A    between atoms: _384  and  _385
REMARK  160  A    between atoms: _388  and  _390
REMARK  161  A    between atoms: _390  and  _391
REMARK  162  A    between atoms: _393  and  _395
REMARK  163  A    between atoms: _395  and  _396
REMARK  164  A    between atoms: _398  and  _400
REMARK  165  A    between atoms: _400  and  _401
REMARK  166  A    between atoms: _400  and  _403
REMARK  167  A    between atoms: _403  and  _404
REMARK  168  A    between atoms: _407  and  _409
REMARK  169  A    between atoms: _409  and  _410
REMARK  170  A    between atoms: _412  and  _414
REMARK  171  A    between atoms: _414  and  _415
REMARK  172  A    between atoms: _417  and  _419
REMARK  173  A    between atoms: _419  and  _420
REMARK  174  A    between atoms: _419  and  _422
REMARK  175  A    between atoms: _422  and  _423
REMARK  176  A    between atoms: _429  and  _431
REMARK  177  A    between atoms: _431  and  _432
REMARK  178  A    between atoms: _431  and  _434
REMARK  179  A    between atoms: _434  and  _435
REMARK  180  A    between atoms: _438  and  _440
REMARK  181  A    between atoms: _440  and  _441
REMARK  182  A    between atoms: _440  and  _443
REMARK  183  A    between atoms: _446  and  _448
REMARK  184  A    between atoms: _448  and  _449
REMARK  185  A    between atoms: _448  and  _451
REMARK  186  A    between atoms: _451  and  _452
REMARK  187  A    between atoms: _455  and  _457
REMARK  188  A    between atoms: _457  and  _458
REMARK  189  A    between atoms: _457  and  _460
REMARK  190  A    between atoms: _460  and  _461
REMARK  191  A    between atoms: _465  and  _466
REMARK  192  A    between atoms: _471  and  _473
REMARK  193  A    between atoms: _473  and  _474
REMARK  194  A    between atoms: _473  and  _476
REMARK  195  A    between atoms: _479  and  _481
REMARK  196  A    between atoms: _481  and  _482
REMARK  197  A    between atoms: _481  and  _484
REMARK  198  A    between atoms: _484  and  _485
REMARK  199  A    between atoms: _490  and  _492
REMARK  200  A    between atoms: _492  and  _493
REMARK  201  A    between atoms: _492  and  _495
REMARK  202  A    between atoms: _495  and  _496
REMARK  203  A    between atoms: _499  and  _501
REMARK  204  A    between atoms: _501  and  _502
REMARK  205  A    between atoms: _501  and  _504
REMARK  206  A    between atoms: _504  and  _505
REMARK  207  A    between atoms: _508  and  _510
REMARK  208  A    between atoms: _510  and  _511
REMARK  209  A    between atoms: _513  and  _515
REMARK  210  A    between atoms: _515  and  _516
REMARK  211  A    between atoms: _515  and  _518
REMARK  212  A    between atoms: _518  and  _519
REMARK  213  A    between atoms: _519  and  _520
REMARK  214  A    between atoms: _520  and  _521
REMARK  215  A    between atoms: _530  and  _532
REMARK  216  A    between atoms: _532  and  _533
REMARK  217  A    between atoms: _532  and  _535
REMARK  218  A    between atoms: _535  and  _536
REMARK                            x       y       z     vdW  Elec       q    Type
REMARK                         _______ _______ _______ _____ _____    ______ ____
ROOT
ATOM      1  O   HOH     1      23.242  25.341   5.097  0.00  0.00    +0.000 OA
ENDROOT
TORSDOF 0
REMARK  Name = ../refined-set-2016/3o9e/3o9e_pocket.pdb
REMARK  218 active torsions:
REMARK  status: ('A' for Active; 'I' for Inactive)
REMARK    1  A    between atoms: _1  and  _3
REMARK    2  A    between atoms: _3  and  _4
REMARK    3  A    between atoms: _3  and  _6
REMARK    4  A    between atoms: _6  and  _7
REMARK    5  A    between atoms: _7  and  _8
REMARK    6  A    between atoms: _8  and  _9
REMARK    7  A    between atoms: _18  and  _20
REMARK    8  A    between atoms: _20  and  _21
REMARK    9  A    between atoms: _20  and  _23
REMARK   10  A    between atoms: _23  and  _24
REMARK   11  A    between atoms: _27  and  _29
REMARK   12  A    between atoms: _29  and  _30
REMARK   13  A    between atoms: _29  and  _32
REMARK   14  A    between atoms: _32  and  _33
REMARK   15  A    between atoms: _36  and  _38
REMARK   16  A    between atoms: _38  and  _39
REMARK   17  A    between atoms: _38  and  _41
REMARK   18  A    between atoms: _41  and  _42
REMARK   19  A    between atoms: _45  and  _47
REMARK   20  A    between atoms: _47  and  _48
REMARK   21  A    between atoms: _47  and  _50
REMARK   22  A    between atoms: _50  and  _51
REMARK   23  A    between atoms: _54  and  _56
REMARK   24  A    between atoms: _56  and  _57
REMARK   25  A    between atoms: _59  and  _61
REMARK   26  A    between atoms: _61  and  _62
REMARK   27  A    between atoms: _65  and  _67
REMARK   28  A    between atoms: _67  and  _68
REMARK   29  A    between atoms: _67  and  _70
REMARK   30  A    between atoms: _70  and  _71
REMARK   31  A    between atoms: _74  and  _76
REMARK   32  A    between atoms: _76  and  _77
REMARK   33  A    between atoms: _76  and  _79
REMARK   34  A    between atoms: _79  and  _80
REMARK   35  A    between atoms: _83  and  _85
REMARK   36  A    between atoms: _85  and  _86
REMARK   37  A    between atoms: _85  and  _88
REMARK   38  A    between atoms: _88  and  _89
REMARK   39  A    between atoms: _92  and  _94
REMARK   40  A    between atoms: _94  and  _95
REMARK   41  A    between atoms: _94  and  _97
REMARK   42  A    between atoms: _100  and  _102
REMARK   43  A    between atoms: _102  and  _103
REMARK   44  A    between atoms: _102  and  _105
REMARK   45  A    between atoms: _105  and  _106
REMARK   46  A    between atoms: _109  and  _111
REMARK   47  A    between atoms: _111  and  _112
REMARK   48  A    between atoms: _114  and  _116
REMARK   49  A    between atoms: _116  and  _117
REMARK   50  A    between atoms: _119  and  _121
REMARK   51  A    between atoms: _121  and  _122
REMARK   52  A    between atoms: _121  and  _124
REMARK   53  A    between atoms: _124  and  _125
REMARK   54  A    between atoms: _128  and  _130
REMARK   55  A    between atoms: _130  and  _131
REMARK   56  A    between atoms: _133  and  _135
REMARK   57  A    between atoms: _135  and  _136
REMARK   58  A    between atoms: _138  and  _140
REMARK   59  A    between atoms: _140  and  _141
REMARK   60  A    between atoms: _140  and  _143
REMARK   61  A    between atoms: _143  and  _144
REMARK   62  A    between atoms: _147  and  _149
REMARK   63  A    between atoms: _149  and  _150
REMARK   64  A    between atoms: _149  and  _152
REMARK   65  A    between atoms: _152  and  _153
REMARK   66  A    between atoms: _157  and  _158
REMARK   67  A    between atoms: _163  and  _165
REMARK   68  A    between atoms: _165  and  _166
REMARK   69  A    between atoms: _165  and  _168
REMARK   70  A    between atoms: _168  and  _169
REMARK   71  A    between atoms: _173  and  _174
REMARK   72  A    between atoms: _179  and  _181
REMARK   73  A    between atoms: _181  and  _182
REMARK   74  A    between atoms: _181  and  _184
REMARK   75  A    between atoms: _187  and  _189
REMARK   76  A    between atoms: _189  and  _190
REMARK   77  A    between atoms: _189  and  _192
REMARK   78  A    between atoms: _192  and  _193
REMARK   79  A    between atoms: _198  and  _200
REMARK   80  A    between atoms: _200  and  _201
REMARK   81  A    between atoms: _200  and  _203
REMARK   82  A    between atoms: _203  and  _204
REMARK   83  A    between atoms: _207  and  _209
REMARK   84  A    between atoms: _209  and  _210
REMARK   85  A    between atoms: _209  and  _212
REMARK   86  A    between atoms: _212  and  _213
REMARK   87  A    between atoms: _216  and  _218
REMARK   88  A    between atoms: _218  and  _219
REMARK   89  A    between atoms: _221  and  _223
REMARK   90  A    between atoms: _223  and  _224
REMARK   91  A    between atoms: _223  and  _226
REMARK   92  A    between atoms: _226  and  _227
REMARK   93  A    between atoms: _227  and  _228
REMARK   94  A    between atoms: _228  and  _229
REMARK   95  A    between atoms: _238  and  _240
REMARK   96  A    between atoms: _240  and  _241
REMARK   97  A    between atoms: _240  and  _243
REMARK   98  A    between atoms: _243  and  _244
REMARK   99  A    between atoms: _249  and  _251
REMARK  100  A    between atoms: _251  and  _252
REMARK  101  A    between atoms: _251  and  _254
REMARK  102  A    between atoms: _254  and  _255
REMARK  103  A    between atoms: _255  and  _256
REMARK  104  A    between atoms: _256  and  _257
REMARK  105  A    between atoms: _266  and  _268
REMARK  106  A    between atoms: _268  and  _269
REMARK  107  A    between atoms: _268  and  _271
REMARK  108  A    between atoms: _271  and  _272
REMARK  109  A    between atoms: _275  and  _277
REMARK  110  A    between atoms: _277  and  _278
REMARK  111  A    between atoms: _277  and  _280
REMARK  112  A    between atoms: _280  and  _281
REMARK  113  A    between atoms: _284  and  _286
REMARK  114  A    between atoms: _286  and  _287
REMARK  115  A    between atoms: _286  and  _289
REMARK  116  A    between atoms: _289  and  _290
REMARK  117  A    between atoms: _293  and  _295
REMARK  118  A    between atoms: _295  and  _296
REMARK  119  A    between atoms: _295  and  _298
REMARK  120  A    between atoms: _298  and  _299
REMARK  121  A    between atoms: _302  and  _304
REMARK  122  A    between atoms: _304  and  _305
REMARK  123  A    between atoms: _307  and  _309
REMARK  124  A    between atoms: _309  and  _310
REMARK  125  A    between atoms: _313  and  _315
REMARK  126  A    between atoms: _315  and  _316
REMARK  127  A    between atoms: _315  and  _318
REMARK  128  A    between atoms: _318  and  _319
REMARK  129  A    between atoms: _322  and  _324
REMARK  130  A    between atoms: _324  and  _325
REMARK  131  A    between atoms: _324  and  _327
REMARK  132  A    between atoms: _327  and  _328
REMARK  133  A    between atoms: _331  and  _333
REMARK  134  A    between atoms: _333  and  _334
REMARK  135  A    between atoms: _333  and  _336
REMARK  136  A    between atoms: _336  and  _337
REMARK  137  A    between atoms: _340  and  _342
REMARK  138  A    between atoms: _342  and  _343
REMARK  139  A    between atoms: _342  and  _345
REMARK  140  A    between atoms: _348  and  _350
REMARK  141  A    between atoms: _350  and  _351
REMARK  142  A    between atoms: _350  and  _353
REMARK  143  A    between atoms: _353  and  _354
REMARK  144  A    between atoms: _357  and  _359
REMARK  145  A    between atoms: _359  and  _360
REMARK  146  A    between atoms: _359  and  _362
REMARK  147  A    between atoms: _362  and  _363
REMARK  148  A    between atoms: _363  and  _364
REMARK  149  A    between atoms: _364  and  _365
REMARK  150  A    between atoms: _365  and  _366
REMARK  151  A    between atoms: _370  and  _372
REMARK  152  A    between atoms: _372  and  _373
REMARK  153  A    between atoms: _372  and  _375
REMARK  154  A    between atoms: _375  and  _376
REMARK  155  A    between atoms: _376  and  _377
REMARK  156  A    between atoms: _379  and  _381
REMARK  157  A    between atoms: _381  and  _382
REMARK  158  A    between atoms: _381  and  _384
REMARK  159  A    between atoms: _384  and  _385
REMARK  160  A    between atoms: _388  and  _390
REMARK  161  A    between atoms: _390  and  _391
REMARK  162  A    between atoms: _393  and  _395
REMARK  163  A    between atoms: _395  and  _396
REMARK  164  A    between atoms: _398  and  _400
REMARK  165  A    between atoms: _400  and  _401
REMARK  166  A    between atoms: _400  and  _403
REMARK  167  A    between atoms: _403  and  _404
REMARK  168  A    between atoms: _407  and  _409
REMARK  169  A    between atoms: _409  and  _410
REMARK  170  A    between atoms: _412  and  _414
REMARK  171  A    between atoms: _414  and  _415
REMARK  172  A    between atoms: _417  and  _419
REMARK  173  A    between atoms: _419  and  _420
REMARK  174  A    between atoms: _419  and  _422
REMARK  175  A    between atoms: _422  and  _423
REMARK  176  A    between atoms: _429  and  _431
REMARK  177  A    between atoms: _431  and  _432
REMARK  178  A    between atoms: _431  and  _434
REMARK  179  A    between atoms: _434  and  _435
REMARK  180  A    between atoms: _438  and  _440
REMARK  181  A    between atoms: _440  and  _441
REMARK  182  A    between atoms: _440  and  _443
REMARK  183  A    between atoms: _446  and  _448
REMARK  184  A    between atoms: _448  and  _449
REMARK  185  A    between atoms: _448  and  _451
REMARK  186  A    between atoms: _451  and  _452
REMARK  187  A    between atoms: _455  and  _457
REMARK  188  A    between atoms: _457  and  _458
REMARK  189  A    between atoms: _457  and  _460
REMARK  190  A    between atoms: _460  and  _461
REMARK  191  A    between atoms: _465  and  _466
REMARK  192  A    between atoms: _471  and  _473
REMARK  193  A    between atoms: _473  and  _474
REMARK  194  A    between atoms: _473  and  _476
REMARK  195  A    between atoms: _479  and  _481
REMARK  196  A    between atoms: _481  and  _482
REMARK  197  A    between atoms: _481  and  _484
REMARK  198  A    between atoms: _484  and  _485
REMARK  199  A    between atoms: _490  and  _492
REMARK  200  A    between atoms: _492  and  _493
REMARK  201  A    between atoms: _492  and  _495
REMARK  202  A    between atoms: _495  and  _496
REMARK  203  A    between atoms: _499  and  _501
REMARK  204  A    between atoms: _501  and  _502
REMARK  205  A    between atoms: _501  and  _504
REMARK  206  A    between atoms: _504  and  _505
REMARK  207  A    between atoms: _508  and  _510
REMARK  208  A    between atoms: _510  and  _511
REMARK  209  A    between atoms: _513  and  _515
REMARK  210  A    between atoms: _515  and  _516
REMARK  211  A    between atoms: _515  and  _518
REMARK  212  A    between atoms: _518  and  _519
REMARK  213  A    between atoms: _519  and  _520
REMARK  214  A    between atoms: _520  and  _521
REMARK  215  A    between atoms: _530  and  _532
REMARK  216  A    between atoms: _532  and  _533
REMARK  217  A    between atoms: _532  and  _535
REMARK  218  A    between atoms: _535  and  _536
REMARK                            x       y       z     vdW  Elec       q    Type
REMARK                         _______ _______ _______ _____ _____    ______ ____
ROOT
ATOM      1  O   HOH     1      24.009  21.286   8.259  0.00  0.00    +0.000 OA
ENDROOT
TORSDOF 0
REMARK  Name = ../refined-set-2016/3o9e/3o9e_pocket.pdb
REMARK  218 active torsions:
REMARK  status: ('A' for Active; 'I' for Inactive)
REMARK    1  A    between atoms: _1  and  _3
REMARK    2  A    between atoms: _3  and  _4
REMARK    3  A    between atoms: _3  and  _6
REMARK    4  A    between atoms: _6  and  _7
REMARK    5  A    between atoms: _7  and  _8
REMARK    6  A    between atoms: _8  and  _9
REMARK    7  A    between atoms: _18  and  _20
REMARK    8  A    between atoms: _20  and  _21
REMARK    9  A    between atoms: _20  and  _23
REMARK   10  A    between atoms: _23  and  _24
REMARK   11  A    between atoms: _27  and  _29
REMARK   12  A    between atoms: _29  and  _30
REMARK   13  A    between atoms: _29  and  _32
REMARK   14  A    between atoms: _32  and  _33
REMARK   15  A    between atoms: _36  and  _38
REMARK   16  A    between atoms: _38  and  _39
REMARK   17  A    between atoms: _38  and  _41
REMARK   18  A    between atoms: _41  and  _42
REMARK   19  A    between atoms: _45  and  _47
REMARK   20  A    between atoms: _47  and  _48
REMARK   21  A    between atoms: _47  and  _50
REMARK   22  A    between atoms: _50  and  _51
REMARK   23  A    between atoms: _54  and  _56
REMARK   24  A    between atoms: _56  and  _57
REMARK   25  A    between atoms: _59  and  _61
REMARK   26  A    between atoms: _61  and  _62
REMARK   27  A    between atoms: _65  and  _67
REMARK   28  A    between atoms: _67  and  _68
REMARK   29  A    between atoms: _67  and  _70
REMARK   30  A    between atoms: _70  and  _71
REMARK   31  A    between atoms: _74  and  _76
REMARK   32  A    between atoms: _76  and  _77
REMARK   33  A    between atoms: _76  and  _79
REMARK   34  A    between atoms: _79  and  _80
REMARK   35  A    between atoms: _83  and  _85
REMARK   36  A    between atoms: _85  and  _86
REMARK   37  A    between atoms: _85  and  _88
REMARK   38  A    between atoms: _88  and  _89
REMARK   39  A    between atoms: _92  and  _94
REMARK   40  A    between atoms: _94  and  _95
REMARK   41  A    between atoms: _94  and  _97
REMARK   42  A    between atoms: _100  and  _102
REMARK   43  A    between atoms: _102  and  _103
REMARK   44  A    between atoms: _102  and  _105
REMARK   45  A    between atoms: _105  and  _106
REMARK   46  A    between atoms: _109  and  _111
REMARK   47  A    between atoms: _111  and  _112
REMARK   48  A    between atoms: _114  and  _116
REMARK   49  A    between atoms: _116  and  _117
REMARK   50  A    between atoms: _119  and  _121
REMARK   51  A    between atoms: _121  and  _122
REMARK   52  A    between atoms: _121  and  _124
REMARK   53  A    between atoms: _124  and  _125
REMARK   54  A    between atoms: _128  and  _130
REMARK   55  A    between atoms: _130  and  _131
REMARK   56  A    between atoms: _133  and  _135
REMARK   57  A    between atoms: _135  and  _136
REMARK   58  A    between atoms: _138  and  _140
REMARK   59  A    between atoms: _140  and  _141
REMARK   60  A    between atoms: _140  and  _143
REMARK   61  A    between atoms: _143  and  _144
REMARK   62  A    between atoms: _147  and  _149
REMARK   63  A    between atoms: _149  and  _150
REMARK   64  A    between atoms: _149  and  _152
REMARK   65  A    between atoms: _152  and  _153
REMARK   66  A    between atoms: _157  and  _158
REMARK   67  A    between atoms: _163  and  _165
REMARK   68  A    between atoms: _165  and  _166
REMARK   69  A    between atoms: _165  and  _168
REMARK   70  A    between atoms: _168  and  _169
REMARK   71  A    between atoms: _173  and  _174
REMARK   72  A    between atoms: _179  and  _181
REMARK   73  A    between atoms: _181  and  _182
REMARK   74  A    between atoms: _181  and  _184
REMARK   75  A    between atoms: _187  and  _189
REMARK   76  A    between atoms: _189  and  _190
REMARK   77  A    between atoms: _189  and  _192
REMARK   78  A    between atoms: _192  and  _193
REMARK   79  A    between atoms: _198  and  _200
REMARK   80  A    between atoms: _200  and  _201
REMARK   81  A    between atoms: _200  and  _203
REMARK   82  A    between atoms: _203  and  _204
REMARK   83  A    between atoms: _207  and  _209
REMARK   84  A    between atoms: _209  and  _210
REMARK   85  A    between atoms: _209  and  _212
REMARK   86  A    between atoms: _212  and  _213
REMARK   87  A    between atoms: _216  and  _218
REMARK   88  A    between atoms: _218  and  _219
REMARK   89  A    between atoms: _221  and  _223
REMARK   90  A    between atoms: _223  and  _224
REMARK   91  A    between atoms: _223  and  _226
REMARK   92  A    between atoms: _226  and  _227
REMARK   93  A    between atoms: _227  and  _228
REMARK   94  A    between atoms: _228  and  _229
REMARK   95  A    between atoms: _238  and  _240
REMARK   96  A    between atoms: _240  and  _241
REMARK   97  A    between atoms: _240  and  _243
REMARK   98  A    between atoms: _243  and  _244
REMARK   99  A    between atoms: _249  and  _251
REMARK  100  A    between atoms: _251  and  _252
REMARK  101  A    between atoms: _251  and  _254
REMARK  102  A    between atoms: _254  and  _255
REMARK  103  A    between atoms: _255  and  _256
REMARK  104  A    between atoms: _256  and  _257
REMARK  105  A    between atoms: _266  and  _268
REMARK  106  A    between atoms: _268  and  _269
REMARK  107  A    between atoms: _268  and  _271
REMARK  108  A    between atoms: _271  and  _272
REMARK  109  A    between atoms: _275  and  _277
REMARK  110  A    between atoms: _277  and  _278
REMARK  111  A    between atoms: _277  and  _280
REMARK  112  A    between atoms: _280  and  _281
REMARK  113  A    between atoms: _284  and  _286
REMARK  114  A    between atoms: _286  and  _287
REMARK  115  A    between atoms: _286  and  _289
REMARK  116  A    between atoms: _289  and  _290
REMARK  117  A    between atoms: _293  and  _295
REMARK  118  A    between atoms: _295  and  _296
REMARK  119  A    between atoms: _295  and  _298
REMARK  120  A    between atoms: _298  and  _299
REMARK  121  A    between atoms: _302  and  _304
REMARK  122  A    between atoms: _304  and  _305
REMARK  123  A    between atoms: _307  and  _309
REMARK  124  A    between atoms: _309  and  _310
REMARK  125  A    between atoms: _313  and  _315
REMARK  126  A    between atoms: _315  and  _316
REMARK  127  A    between atoms: _315  and  _318
REMARK  128  A    between atoms: _318  and  _319
REMARK  129  A    between atoms: _322  and  _324
REMARK  130  A    between atoms: _324  and  _325
REMARK  131  A    between atoms: _324  and  _327
REMARK  132  A    between atoms: _327  and  _328
REMARK  133  A    between atoms: _331  and  _333
REMARK  134  A    between atoms: _333  and  _334
REMARK  135  A    between atoms: _333  and  _336
REMARK  136  A    between atoms: _336  and  _337
REMARK  137  A    between atoms: _340  and  _342
REMARK  138  A    between atoms: _342  and  _343
REMARK  139  A    between atoms: _342  and  _345
REMARK  140  A    between atoms: _348  and  _350
REMARK  141  A    between atoms: _350  and  _351
REMARK  142  A    between atoms: _350  and  _353
REMARK  143  A    between atoms: _353  and  _354
REMARK  144  A    between atoms: _357  and  _359
REMARK  145  A    between atoms: _359  and  _360
REMARK  146  A    between atoms: _359  and  _362
REMARK  147  A    between atoms: _362  and  _363
REMARK  148  A    between atoms: _363  and  _364
REMARK  149  A    between atoms: _364  and  _365
REMARK  150  A    between atoms: _365  and  _366
REMARK  151  A    between atoms: _370  and  _372
REMARK  152  A    between atoms: _372  and  _373
REMARK  153  A    between atoms: _372  and  _375
REMARK  154  A    between atoms: _375  and  _376
REMARK  155  A    between atoms: _376  and  _377
REMARK  156  A    between atoms: _379  and  _381
REMARK  157  A    between atoms: _381  and  _382
REMARK  158  A    between atoms: _381  and  _384
REMARK  159  A    between atoms: _384  and  _385
REMARK  160  A    between atoms: _388  and  _390
REMARK  161  A    between atoms: _390  and  _391
REMARK  162  A    between atoms: _393  and  _395
REMARK  163  A    between atoms: _395  and  _396
REMARK  164  A    between atoms: _398  and  _400
REMARK  165  A    between atoms: _400  and  _401
REMARK  166  A    between atoms: _400  and  _403
REMARK  167  A    between atoms: _403  and  _404
REMARK  168  A    between atoms: _407  and  _409
REMARK  169  A    between atoms: _409  and  _410
REMARK  170  A    between atoms: _412  and  _414
REMARK  171  A    between atoms: _414  and  _415
REMARK  172  A    between atoms: _417  and  _419
REMARK  173  A    between atoms: _419  and  _420
REMARK  174  A    between atoms: _419  and  _422
REMARK  175  A    between atoms: _422  and  _423
REMARK  176  A    between atoms: _429  and  _431
REMARK  177  A    between atoms: _431  and  _432
REMARK  178  A    between atoms: _431  and  _434
REMARK  179  A    between atoms: _434  and  _435
REMARK  180  A    between atoms: _438  and  _440
REMARK  181  A    between atoms: _440  and  _441
REMARK  182  A    between atoms: _440  and  _443
REMARK  183  A    between atoms: _446  and  _448
REMARK  184  A    between atoms: _448  and  _449
REMARK  185  A    between atoms: _448  and  _451
REMARK  186  A    between atoms: _451  and  _452
REMARK  187  A    between atoms: _455  and  _457
REMARK  188  A    between atoms: _457  and  _458
REMARK  189  A    between atoms: _457  and  _460
REMARK  190  A    between atoms: _460  and  _461
REMARK  191  A    between atoms: _465  and  _466
REMARK  192  A    between atoms: _471  and  _473
REMARK  193  A    between atoms: _473  and  _474
REMARK  194  A    between atoms: _473  and  _476
REMARK  195  A    between atoms: _479  and  _481
REMARK  196  A    between atoms: _481  and  _482
REMARK  197  A    between atoms: _481  and  _484
REMARK  198  A    between atoms: _484  and  _485
REMARK  199  A    between atoms: _490  and  _492
REMARK  200  A    between atoms: _492  and  _493
REMARK  201  A    between atoms: _492  and  _495
REMARK  202  A    between atoms: _495  and  _496
REMARK  203  A    between atoms: _499  and  _501
REMARK  204  A    between atoms: _501  and  _502
REMARK  205  A    between atoms: _501  and  _504
REMARK  206  A    between atoms: _504  and  _505
REMARK  207  A    between atoms: _508  and  _510
REMARK  208  A    between atoms: _510  and  _511
REMARK  209  A    between atoms: _513  and  _515
REMARK  210  A    between atoms: _515  and  _516
REMARK  211  A    between atoms: _515  and  _518
REMARK  212  A    between atoms: _518  and  _519
REMARK  213  A    between atoms: _519  and  _520
REMARK  214  A    between atoms: _520  and  _521
REMARK  215  A    between atoms: _530  and  _532
REMARK  216  A    between atoms: _532  and  _533
REMARK  217  A    between atoms: _532  and  _535
REMARK  218  A    between atoms: _535  and  _536
REMARK                            x       y       z     vdW  Elec       q    Type
REMARK                         _______ _______ _______ _____ _____    ______ ____
ROOT
ATOM      1  O   HOH     1      22.568  36.248  20.953  0.00  0.00    +0.000 OA
ENDROOT
TORSDOF 0
REMARK  Name = ../refined-set-2016/3o9e/3o9e_pocket.pdb
REMARK  218 active torsions:
REMARK  status: ('A' for Active; 'I' for Inactive)
REMARK    1  A    between atoms: _1  and  _3
REMARK    2  A    between atoms: _3  and  _4
REMARK    3  A    between atoms: _3  and  _6
REMARK    4  A    between atoms: _6  and  _7
REMARK    5  A    between atoms: _7  and  _8
REMARK    6  A    between atoms: _8  and  _9
REMARK    7  A    between atoms: _18  and  _20
REMARK    8  A    between atoms: _20  and  _21
REMARK    9  A    between atoms: _20  and  _23
REMARK   10  A    between atoms: _23  and  _24
REMARK   11  A    between atoms: _27  and  _29
REMARK   12  A    between atoms: _29  and  _30
REMARK   13  A    between atoms: _29  and  _32
REMARK   14  A    between atoms: _32  and  _33
REMARK   15  A    between atoms: _36  and  _38
REMARK   16  A    between atoms: _38  and  _39
REMARK   17  A    between atoms: _38  and  _41
REMARK   18  A    between atoms: _41  and  _42
REMARK   19  A    between atoms: _45  and  _47
REMARK   20  A    between atoms: _47  and  _48
REMARK   21  A    between atoms: _47  and  _50
REMARK   22  A    between atoms: _50  and  _51
REMARK   23  A    between atoms: _54  and  _56
REMARK   24  A    between atoms: _56  and  _57
REMARK   25  A    between atoms: _59  and  _61
REMARK   26  A    between atoms: _61  and  _62
REMARK   27  A    between atoms: _65  and  _67
REMARK   28  A    between atoms: _67  and  _68
REMARK   29  A    between atoms: _67  and  _70
REMARK   30  A    between atoms: _70  and  _71
REMARK   31  A    between atoms: _74  and  _76
REMARK   32  A    between atoms: _76  and  _77
REMARK   33  A    between atoms: _76  and  _79
REMARK   34  A    between atoms: _79  and  _80
REMARK   35  A    between atoms: _83  and  _85
REMARK   36  A    between atoms: _85  and  _86
REMARK   37  A    between atoms: _85  and  _88
REMARK   38  A    between atoms: _88  and  _89
REMARK   39  A    between atoms: _92  and  _94
REMARK   40  A    between atoms: _94  and  _95
REMARK   41  A    between atoms: _94  and  _97
REMARK   42  A    between atoms: _100  and  _102
REMARK   43  A    between atoms: _102  and  _103
REMARK   44  A    between atoms: _102  and  _105
REMARK   45  A    between atoms: _105  and  _106
REMARK   46  A    between atoms: _109  and  _111
REMARK   47  A    between atoms: _111  and  _112
REMARK   48  A    between atoms: _114  and  _116
REMARK   49  A    between atoms: _116  and  _117
REMARK   50  A    between atoms: _119  and  _121
REMARK   51  A    between atoms: _121  and  _122
REMARK   52  A    between atoms: _121  and  _124
REMARK   53  A    between atoms: _124  and  _125
REMARK   54  A    between atoms: _128  and  _130
REMARK   55  A    between atoms: _130  and  _131
REMARK   56  A    between atoms: _133  and  _135
REMARK   57  A    between atoms: _135  and  _136
REMARK   58  A    between atoms: _138  and  _140
REMARK   59  A    between atoms: _140  and  _141
REMARK   60  A    between atoms: _140  and  _143
REMARK   61  A    between atoms: _143  and  _144
REMARK   62  A    between atoms: _147  and  _149
REMARK   63  A    between atoms: _149  and  _150
REMARK   64  A    between atoms: _149  and  _152
REMARK   65  A    between atoms: _152  and  _153
REMARK   66  A    between atoms: _157  and  _158
REMARK   67  A    between atoms: _163  and  _165
REMARK   68  A    between atoms: _165  and  _166
REMARK   69  A    between atoms: _165  and  _168
REMARK   70  A    between atoms: _168  and  _169
REMARK   71  A    between atoms: _173  and  _174
REMARK   72  A    between atoms: _179  and  _181
REMARK   73  A    between atoms: _181  and  _182
REMARK   74  A    between atoms: _181  and  _184
REMARK   75  A    between atoms: _187  and  _189
REMARK   76  A    between atoms: _189  and  _190
REMARK   77  A    between atoms: _189  and  _192
REMARK   78  A    between atoms: _192  and  _193
REMARK   79  A    between atoms: _198  and  _200
REMARK   80  A    between atoms: _200  and  _201
REMARK   81  A    between atoms: _200  and  _203
REMARK   82  A    between atoms: _203  and  _204
REMARK   83  A    between atoms: _207  and  _209
REMARK   84  A    between atoms: _209  and  _210
REMARK   85  A    between atoms: _209  and  _212
REMARK   86  A    between atoms: _212  and  _213
REMARK   87  A    between atoms: _216  and  _218
REMARK   88  A    between atoms: _218  and  _219
REMARK   89  A    between atoms: _221  and  _223
REMARK   90  A    between atoms: _223  and  _224
REMARK   91  A    between atoms: _223  and  _226
REMARK   92  A    between atoms: _226  and  _227
REMARK   93  A    between atoms: _227  and  _228
REMARK   94  A    between atoms: _228  and  _229
REMARK   95  A    between atoms: _238  and  _240
REMARK   96  A    between atoms: _240  and  _241
REMARK   97  A    between atoms: _240  and  _243
REMARK   98  A    between atoms: _243  and  _244
REMARK   99  A    between atoms: _249  and  _251
REMARK  100  A    between atoms: _251  and  _252
REMARK  101  A    between atoms: _251  and  _254
REMARK  102  A    between atoms: _254  and  _255
REMARK  103  A    between atoms: _255  and  _256
REMARK  104  A    between atoms: _256  and  _257
REMARK  105  A    between atoms: _266  and  _268
REMARK  106  A    between atoms: _268  and  _269
REMARK  107  A    between atoms: _268  and  _271
REMARK  108  A    between atoms: _271  and  _272
REMARK  109  A    between atoms: _275  and  _277
REMARK  110  A    between atoms: _277  and  _278
REMARK  111  A    between atoms: _277  and  _280
REMARK  112  A    between atoms: _280  and  _281
REMARK  113  A    between atoms: _284  and  _286
REMARK  114  A    between atoms: _286  and  _287
REMARK  115  A    between atoms: _286  and  _289
REMARK  116  A    between atoms: _289  and  _290
REMARK  117  A    between atoms: _293  and  _295
REMARK  118  A    between atoms: _295  and  _296
REMARK  119  A    between atoms: _295  and  _298
REMARK  120  A    between atoms: _298  and  _299
REMARK  121  A    between atoms: _302  and  _304
REMARK  122  A    between atoms: _304  and  _305
REMARK  123  A    between atoms: _307  and  _309
REMARK  124  A    between atoms: _309  and  _310
REMARK  125  A    between atoms: _313  and  _315
REMARK  126  A    between atoms: _315  and  _316
REMARK  127  A    between atoms: _315  and  _318
REMARK  128  A    between atoms: _318  and  _319
REMARK  129  A    between atoms: _322  and  _324
REMARK  130  A    between atoms: _324  and  _325
REMARK  131  A    between atoms: _324  and  _327
REMARK  132  A    between atoms: _327  and  _328
REMARK  133  A    between atoms: _331  and  _333
REMARK  134  A    between atoms: _333  and  _334
REMARK  135  A    between atoms: _333  and  _336
REMARK  136  A    between atoms: _336  and  _337
REMARK  137  A    between atoms: _340  and  _342
REMARK  138  A    between atoms: _342  and  _343
REMARK  139  A    between atoms: _342  and  _345
REMARK  140  A    between atoms: _348  and  _350
REMARK  141  A    between atoms: _350  and  _351
REMARK  142  A    between atoms: _350  and  _353
REMARK  143  A    between atoms: _353  and  _354
REMARK  144  A    between atoms: _357  and  _359
REMARK  145  A    between atoms: _359  and  _360
REMARK  146  A    between atoms: _359  and  _362
REMARK  147  A    between atoms: _362  and  _363
REMARK  148  A    between atoms: _363  and  _364
REMARK  149  A    between atoms: _364  and  _365
REMARK  150  A    between atoms: _365  and  _366
REMARK  151  A    between atoms: _370  and  _372
REMARK  152  A    between atoms: _372  and  _373
REMARK  153  A    between atoms: _372  and  _375
REMARK  154  A    between atoms: _375  and  _376
REMARK  155  A    between atoms: _376  and  _377
REMARK  156  A    between atoms: _379  and  _381
REMARK  157  A    between atoms: _381  and  _382
REMARK  158  A    between atoms: _381  and  _384
REMARK  159  A    between atoms: _384  and  _385
REMARK  160  A    between atoms: _388  and  _390
REMARK  161  A    between atoms: _390  and  _391
REMARK  162  A    between atoms: _393  and  _395
REMARK  163  A    between atoms: _395  and  _396
REMARK  164  A    between atoms: _398  and  _400
REMARK  165  A    between atoms: _400  and  _401
REMARK  166  A    between atoms: _400  and  _403
REMARK  167  A    between atoms: _403  and  _404
REMARK  168  A    between atoms: _407  and  _409
REMARK  169  A    between atoms: _409  and  _410
REMARK  170  A    between atoms: _412  and  _414
REMARK  171  A    between atoms: _414  and  _415
REMARK  172  A    between atoms: _417  and  _419
REMARK  173  A    between atoms: _419  and  _420
REMARK  174  A    between atoms: _419  and  _422
REMARK  175  A    between atoms: _422  and  _423
REMARK  176  A    between atoms: _429  and  _431
REMARK  177  A    between atoms: _431  and  _432
REMARK  178  A    between atoms: _431  and  _434
REMARK  179  A    between atoms: _434  and  _435
REMARK  180  A    between atoms: _438  and  _440
REMARK  181  A    between atoms: _440  and  _441
REMARK  182  A    between atoms: _440  and  _443
REMARK  183  A    between atoms: _446  and  _448
REMARK  184  A    between atoms: _448  and  _449
REMARK  185  A    between atoms: _448  and  _451
REMARK  186  A    between atoms: _451  and  _452
REMARK  187  A    between atoms: _455  and  _457
REMARK  188  A    between atoms: _457  and  _458
REMARK  189  A    between atoms: _457  and  _460
REMARK  190  A    between atoms: _460  and  _461
REMARK  191  A    between atoms: _465  and  _466
REMARK  192  A    between atoms: _471  and  _473
REMARK  193  A    between atoms: _473  and  _474
REMARK  194  A    between atoms: _473  and  _476
REMARK  195  A    between atoms: _479  and  _481
REMARK  196  A    between atoms: _481  and  _482
REMARK  197  A    between atoms: _481  and  _484
REMARK  198  A    between atoms: _484  and  _485
REMARK  199  A    between atoms: _490  and  _492
REMARK  200  A    between atoms: _492  and  _493
REMARK  201  A    between atoms: _492  and  _495
REMARK  202  A    between atoms: _495  and  _496
REMARK  203  A    between atoms: _499  and  _501
REMARK  204  A    between atoms: _501  and  _502
REMARK  205  A    between atoms: _501  and  _504
REMARK  206  A    between atoms: _504  and  _505
REMARK  207  A    between atoms: _508  and  _510
REMARK  208  A    between atoms: _510  and  _511
REMARK  209  A    between atoms: _513  and  _515
REMARK  210  A    between atoms: _515  and  _516
REMARK  211  A    between atoms: _515  and  _518
REMARK  212  A    between atoms: _518  and  _519
REMARK  213  A    between atoms: _519  and  _520
REMARK  214  A    between atoms: _520  and  _521
REMARK  215  A    between atoms: _530  and  _532
REMARK  216  A    between atoms: _532  and  _533
REMARK  217  A    between atoms: _532  and  _535
REMARK  218  A    between atoms: _535  and  _536
REMARK                            x       y       z     vdW  Elec       q    Type
REMARK                         _______ _______ _______ _____ _____    ______ ____
ROOT
ATOM      1  O   HOH     1      19.996  32.315  23.468  0.00  0.00    +0.000 OA
ENDROOT
TORSDOF 0
REMARK  Name = ../refined-set-2016/3o9e/3o9e_pocket.pdb
REMARK  218 active torsions:
REMARK  status: ('A' for Active; 'I' for Inactive)
REMARK    1  A    between atoms: _1  and  _3
REMARK    2  A    between atoms: _3  and  _4
REMARK    3  A    between atoms: _3  and  _6
REMARK    4  A    between atoms: _6  and  _7
REMARK    5  A    between atoms: _7  and  _8
REMARK    6  A    between atoms: _8  and  _9
REMARK    7  A    between atoms: _18  and  _20
REMARK    8  A    between atoms: _20  and  _21
REMARK    9  A    between atoms: _20  and  _23
REMARK   10  A    between atoms: _23  and  _24
REMARK   11  A    between atoms: _27  and  _29
REMARK   12  A    between atoms: _29  and  _30
REMARK   13  A    between atoms: _29  and  _32
REMARK   14  A    between atoms: _32  and  _33
REMARK   15  A    between atoms: _36  and  _38
REMARK   16  A    between atoms: _38  and  _39
REMARK   17  A    between atoms: _38  and  _41
REMARK   18  A    between atoms: _41  and  _42
REMARK   19  A    between atoms: _45  and  _47
REMARK   20  A    between atoms: _47  and  _48
REMARK   21  A    between atoms: _47  and  _50
REMARK   22  A    between atoms: _50  and  _51
REMARK   23  A    between atoms: _54  and  _56
REMARK   24  A    between atoms: _56  and  _57
REMARK   25  A    between atoms: _59  and  _61
REMARK   26  A    between atoms: _61  and  _62
REMARK   27  A    between atoms: _65  and  _67
REMARK   28  A    between atoms: _67  and  _68
REMARK   29  A    between atoms: _67  and  _70
REMARK   30  A    between atoms: _70  and  _71
REMARK   31  A    between atoms: _74  and  _76
REMARK   32  A    between atoms: _76  and  _77
REMARK   33  A    between atoms: _76  and  _79
REMARK   34  A    between atoms: _79  and  _80
REMARK   35  A    between atoms: _83  and  _85
REMARK   36  A    between atoms: _85  and  _86
REMARK   37  A    between atoms: _85  and  _88
REMARK   38  A    between atoms: _88  and  _89
REMARK   39  A    between atoms: _92  and  _94
REMARK   40  A    between atoms: _94  and  _95
REMARK   41  A    between atoms: _94  and  _97
REMARK   42  A    between atoms: _100  and  _102
REMARK   43  A    between atoms: _102  and  _103
REMARK   44  A    between atoms: _102  and  _105
REMARK   45  A    between atoms: _105  and  _106
REMARK   46  A    between atoms: _109  and  _111
REMARK   47  A    between atoms: _111  and  _112
REMARK   48  A    between atoms: _114  and  _116
REMARK   49  A    between atoms: _116  and  _117
REMARK   50  A    between atoms: _119  and  _121
REMARK   51  A    between atoms: _121  and  _122
REMARK   52  A    between atoms: _121  and  _124
REMARK   53  A    between atoms: _124  and  _125
REMARK   54  A    between atoms: _128  and  _130
REMARK   55  A    between atoms: _130  and  _131
REMARK   56  A    between atoms: _133  and  _135
REMARK   57  A    between atoms: _135  and  _136
REMARK   58  A    between atoms: _138  and  _140
REMARK   59  A    between atoms: _140  and  _141
REMARK   60  A    between atoms: _140  and  _143
REMARK   61  A    between atoms: _143  and  _144
REMARK   62  A    between atoms: _147  and  _149
REMARK   63  A    between atoms: _149  and  _150
REMARK   64  A    between atoms: _149  and  _152
REMARK   65  A    between atoms: _152  and  _153
REMARK   66  A    between atoms: _157  and  _158
REMARK   67  A    between atoms: _163  and  _165
REMARK   68  A    between atoms: _165  and  _166
REMARK   69  A    between atoms: _165  and  _168
REMARK   70  A    between atoms: _168  and  _169
REMARK   71  A    between atoms: _173  and  _174
REMARK   72  A    between atoms: _179  and  _181
REMARK   73  A    between atoms: _181  and  _182
REMARK   74  A    between atoms: _181  and  _184
REMARK   75  A    between atoms: _187  and  _189
REMARK   76  A    between atoms: _189  and  _190
REMARK   77  A    between atoms: _189  and  _192
REMARK   78  A    between atoms: _192  and  _193
REMARK   79  A    between atoms: _198  and  _200
REMARK   80  A    between atoms: _200  and  _201
REMARK   81  A    between atoms: _200  and  _203
REMARK   82  A    between atoms: _203  and  _204
REMARK   83  A    between atoms: _207  and  _209
REMARK   84  A    between atoms: _209  and  _210
REMARK   85  A    between atoms: _209  and  _212
REMARK   86  A    between atoms: _212  and  _213
REMARK   87  A    between atoms: _216  and  _218
REMARK   88  A    between atoms: _218  and  _219
REMARK   89  A    between atoms: _221  and  _223
REMARK   90  A    between atoms: _223  and  _224
REMARK   91  A    between atoms: _223  and  _226
REMARK   92  A    between atoms: _226  and  _227
REMARK   93  A    between atoms: _227  and  _228
REMARK   94  A    between atoms: _228  and  _229
REMARK   95  A    between atoms: _238  and  _240
REMARK   96  A    between atoms: _240  and  _241
REMARK   97  A    between atoms: _240  and  _243
REMARK   98  A    between atoms: _243  and  _244
REMARK   99  A    between atoms: _249  and  _251
REMARK  100  A    between atoms: _251  and  _252
REMARK  101  A    between atoms: _251  and  _254
REMARK  102  A    between atoms: _254  and  _255
REMARK  103  A    between atoms: _255  and  _256
REMARK  104  A    between atoms: _256  and  _257
REMARK  105  A    between atoms: _266  and  _268
REMARK  106  A    between atoms: _268  and  _269
REMARK  107  A    between atoms: _268  and  _271
REMARK  108  A    between atoms: _271  and  _272
REMARK  109  A    between atoms: _275  and  _277
REMARK  110  A    between atoms: _277  and  _278
REMARK  111  A    between atoms: _277  and  _280
REMARK  112  A    between atoms: _280  and  _281
REMARK  113  A    between atoms: _284  and  _286
REMARK  114  A    between atoms: _286  and  _287
REMARK  115  A    between atoms: _286  and  _289
REMARK  116  A    between atoms: _289  and  _290
REMARK  117  A    between atoms: _293  and  _295
REMARK  118  A    between atoms: _295  and  _296
REMARK  119  A    between atoms: _295  and  _298
REMARK  120  A    between atoms: _298  and  _299
REMARK  121  A    between atoms: _302  and  _304
REMARK  122  A    between atoms: _304  and  _305
REMARK  123  A    between atoms: _307  and  _309
REMARK  124  A    between atoms: _309  and  _310
REMARK  125  A    between atoms: _313  and  _315
REMARK  126  A    between atoms: _315  and  _316
REMARK  127  A    between atoms: _315  and  _318
REMARK  128  A    between atoms: _318  and  _319
REMARK  129  A    between atoms: _322  and  _324
REMARK  130  A    between atoms: _324  and  _325
REMARK  131  A    between atoms: _324  and  _327
REMARK  132  A    between atoms: _327  and  _328
REMARK  133  A    between atoms: _331  and  _333
REMARK  134  A    between atoms: _333  and  _334
REMARK  135  A    between atoms: _333  and  _336
REMARK  136  A    between atoms: _336  and  _337
REMARK  137  A    between atoms: _340  and  _342
REMARK  138  A    between atoms: _342  and  _343
REMARK  139  A    between atoms: _342  and  _345
REMARK  140  A    between atoms: _348  and  _350
REMARK  141  A    between atoms: _350  and  _351
REMARK  142  A    between atoms: _350  and  _353
REMARK  143  A    between atoms: _353  and  _354
REMARK  144  A    between atoms: _357  and  _359
REMARK  145  A    between atoms: _359  and  _360
REMARK  146  A    between atoms: _359  and  _362
REMARK  147  A    between atoms: _362  and  _363
REMARK  148  A    between atoms: _363  and  _364
REMARK  149  A    between atoms: _364  and  _365
REMARK  150  A    between atoms: _365  and  _366
REMARK  151  A    between atoms: _370  and  _372
REMARK  152  A    between atoms: _372  and  _373
REMARK  153  A    between atoms: _372  and  _375
REMARK  154  A    between atoms: _375  and  _376
REMARK  155  A    between atoms: _376  and  _377
REMARK  156  A    between atoms: _379  and  _381
REMARK  157  A    between atoms: _381  and  _382
REMARK  158  A    between atoms: _381  and  _384
REMARK  159  A    between atoms: _384  and  _385
REMARK  160  A    between atoms: _388  and  _390
REMARK  161  A    between atoms: _390  and  _391
REMARK  162  A    between atoms: _393  and  _395
REMARK  163  A    between atoms: _395  and  _396
REMARK  164  A    between atoms: _398  and  _400
REMARK  165  A    between atoms: _400  and  _401
REMARK  166  A    between atoms: _400  and  _403
REMARK  167  A    between atoms: _403  and  _404
REMARK  168  A    between atoms: _407  and  _409
REMARK  169  A    between atoms: _409  and  _410
REMARK  170  A    between atoms: _412  and  _414
REMARK  171  A    between atoms: _414  and  _415
REMARK  172  A    between atoms: _417  and  _419
REMARK  173  A    between atoms: _419  and  _420
REMARK  174  A    between atoms: _419  and  _422
REMARK  175  A    between atoms: _422  and  _423
REMARK  176  A    between atoms: _429  and  _431
REMARK  177  A    between atoms: _431  and  _432
REMARK  178  A    between atoms: _431  and  _434
REMARK  179  A    between atoms: _434  and  _435
REMARK  180  A    between atoms: _438  and  _440
REMARK  181  A    between atoms: _440  and  _441
REMARK  182  A    between atoms: _440  and  _443
REMARK  183  A    between atoms: _446  and  _448
REMARK  184  A    between atoms: _448  and  _449
REMARK  185  A    between atoms: _448  and  _451
REMARK  186  A    between atoms: _451  and  _452
REMARK  187  A    between atoms: _455  and  _457
REMARK  188  A    between atoms: _457  and  _458
REMARK  189  A    between atoms: _457  and  _460
REMARK  190  A    between atoms: _460  and  _461
REMARK  191  A    between atoms: _465  and  _466
REMARK  192  A    between atoms: _471  and  _473
REMARK  193  A    between atoms: _473  and  _474
REMARK  194  A    between atoms: _473  and  _476
REMARK  195  A    between atoms: _479  and  _481
REMARK  196  A    between atoms: _481  and  _482
REMARK  197  A    between atoms: _481  and  _484
REMARK  198  A    between atoms: _484  and  _485
REMARK  199  A    between atoms: _490  and  _492
REMARK  200  A    between atoms: _492  and  _493
REMARK  201  A    between atoms: _492  and  _495
REMARK  202  A    between atoms: _495  and  _496
REMARK  203  A    between atoms: _499  and  _501
REMARK  204  A    between atoms: _501  and  _502
REMARK  205  A    between atoms: _501  and  _504
REMARK  206  A    between atoms: _504  and  _505
REMARK  207  A    between atoms: _508  and  _510
REMARK  208  A    between atoms: _510  and  _511
REMARK  209  A    between atoms: _513  and  _515
REMARK  210  A    between atoms: _515  and  _516
REMARK  211  A    between atoms: _515  and  _518
REMARK  212  A    between atoms: _518  and  _519
REMARK  213  A    between atoms: _519  and  _520
REMARK  214  A    between atoms: _520  and  _521
REMARK  215  A    between atoms: _530  and  _532
REMARK  216  A    between atoms: _532  and  _533
REMARK  217  A    between atoms: _532  and  _535
REMARK  218  A    between atoms: _535  and  _536
REMARK                            x       y       z     vdW  Elec       q    Type
REMARK                         _______ _______ _______ _____ _____    ______ ____
ROOT
ATOM      1  O   HOH     1      18.171  34.755  19.378  0.00  0.00    +0.000 OA
ENDROOT
TORSDOF 0
REMARK  Name = ../refined-set-2016/3o9e/3o9e_pocket.pdb
REMARK  218 active torsions:
REMARK  status: ('A' for Active; 'I' for Inactive)
REMARK    1  A    between atoms: _1  and  _3
REMARK    2  A    between atoms: _3  and  _4
REMARK    3  A    between atoms: _3  and  _6
REMARK    4  A    between atoms: _6  and  _7
REMARK    5  A    between atoms: _7  and  _8
REMARK    6  A    between atoms: _8  and  _9
REMARK    7  A    between atoms: _18  and  _20
REMARK    8  A    between atoms: _20  and  _21
REMARK    9  A    between atoms: _20  and  _23
REMARK   10  A    between atoms: _23  and  _24
REMARK   11  A    between atoms: _27  and  _29
REMARK   12  A    between atoms: _29  and  _30
REMARK   13  A    between atoms: _29  and  _32
REMARK   14  A    between atoms: _32  and  _33
REMARK   15  A    between atoms: _36  and  _38
REMARK   16  A    between atoms: _38  and  _39
REMARK   17  A    between atoms: _38  and  _41
REMARK   18  A    between atoms: _41  and  _42
REMARK   19  A    between atoms: _45  and  _47
REMARK   20  A    between atoms: _47  and  _48
REMARK   21  A    between atoms: _47  and  _50
REMARK   22  A    between atoms: _50  and  _51
REMARK   23  A    between atoms: _54  and  _56
REMARK   24  A    between atoms: _56  and  _57
REMARK   25  A    between atoms: _59  and  _61
REMARK   26  A    between atoms: _61  and  _62
REMARK   27  A    between atoms: _65  and  _67
REMARK   28  A    between atoms: _67  and  _68
REMARK   29  A    between atoms: _67  and  _70
REMARK   30  A    between atoms: _70  and  _71
REMARK   31  A    between atoms: _74  and  _76
REMARK   32  A    between atoms: _76  and  _77
REMARK   33  A    between atoms: _76  and  _79
REMARK   34  A    between atoms: _79  and  _80
REMARK   35  A    between atoms: _83  and  _85
REMARK   36  A    between atoms: _85  and  _86
REMARK   37  A    between atoms: _85  and  _88
REMARK   38  A    between atoms: _88  and  _89
REMARK   39  A    between atoms: _92  and  _94
REMARK   40  A    between atoms: _94  and  _95
REMARK   41  A    between atoms: _94  and  _97
REMARK   42  A    between atoms: _100  and  _102
REMARK   43  A    between atoms: _102  and  _103
REMARK   44  A    between atoms: _102  and  _105
REMARK   45  A    between atoms: _105  and  _106
REMARK   46  A    between atoms: _109  and  _111
REMARK   47  A    between atoms: _111  and  _112
REMARK   48  A    between atoms: _114  and  _116
REMARK   49  A    between atoms: _116  and  _117
REMARK   50  A    between atoms: _119  and  _121
REMARK   51  A    between atoms: _121  and  _122
REMARK   52  A    between atoms: _121  and  _124
REMARK   53  A    between atoms: _124  and  _125
REMARK   54  A    between atoms: _128  and  _130
REMARK   55  A    between atoms: _130  and  _131
REMARK   56  A    between atoms: _133  and  _135
REMARK   57  A    between atoms: _135  and  _136
REMARK   58  A    between atoms: _138  and  _140
REMARK   59  A    between atoms: _140  and  _141
REMARK   60  A    between atoms: _140  and  _143
REMARK   61  A    between atoms: _143  and  _144
REMARK   62  A    between atoms: _147  and  _149
REMARK   63  A    between atoms: _149  and  _150
REMARK   64  A    between atoms: _149  and  _152
REMARK   65  A    between atoms: _152  and  _153
REMARK   66  A    between atoms: _157  and  _158
REMARK   67  A    between atoms: _163  and  _165
REMARK   68  A    between atoms: _165  and  _166
REMARK   69  A    between atoms: _165  and  _168
REMARK   70  A    between atoms: _168  and  _169
REMARK   71  A    between atoms: _173  and  _174
REMARK   72  A    between atoms: _179  and  _181
REMARK   73  A    between atoms: _181  and  _182
REMARK   74  A    between atoms: _181  and  _184
REMARK   75  A    between atoms: _187  and  _189
REMARK   76  A    between atoms: _189  and  _190
REMARK   77  A    between atoms: _189  and  _192
REMARK   78  A    between atoms: _192  and  _193
REMARK   79  A    between atoms: _198  and  _200
REMARK   80  A    between atoms: _200  and  _201
REMARK   81  A    between atoms: _200  and  _203
REMARK   82  A    between atoms: _203  and  _204
REMARK   83  A    between atoms: _207  and  _209
REMARK   84  A    between atoms: _209  and  _210
REMARK   85  A    between atoms: _209  and  _212
REMARK   86  A    between atoms: _212  and  _213
REMARK   87  A    between atoms: _216  and  _218
REMARK   88  A    between atoms: _218  and  _219
REMARK   89  A    between atoms: _221  and  _223
REMARK   90  A    between atoms: _223  and  _224
REMARK   91  A    between atoms: _223  and  _226
REMARK   92  A    between atoms: _226  and  _227
REMARK   93  A    between atoms: _227  and  _228
REMARK   94  A    between atoms: _228  and  _229
REMARK   95  A    between atoms: _238  and  _240
REMARK   96  A    between atoms: _240  and  _241
REMARK   97  A    between atoms: _240  and  _243
REMARK   98  A    between atoms: _243  and  _244
REMARK   99  A    between atoms: _249  and  _251
REMARK  100  A    between atoms: _251  and  _252
REMARK  101  A    between atoms: _251  and  _254
REMARK  102  A    between atoms: _254  and  _255
REMARK  103  A    between atoms: _255  and  _256
REMARK  104  A    between atoms: _256  and  _257
REMARK  105  A    between atoms: _266  and  _268
REMARK  106  A    between atoms: _268  and  _269
REMARK  107  A    between atoms: _268  and  _271
REMARK  108  A    between atoms: _271  and  _272
REMARK  109  A    between atoms: _275  and  _277
REMARK  110  A    between atoms: _277  and  _278
REMARK  111  A    between atoms: _277  and  _280
REMARK  112  A    between atoms: _280  and  _281
REMARK  113  A    between atoms: _284  and  _286
REMARK  114  A    between atoms: _286  and  _287
REMARK  115  A    between atoms: _286  and  _289
REMARK  116  A    between atoms: _289  and  _290
REMARK  117  A    between atoms: _293  and  _295
REMARK  118  A    between atoms: _295  and  _296
REMARK  119  A    between atoms: _295  and  _298
REMARK  120  A    between atoms: _298  and  _299
REMARK  121  A    between atoms: _302  and  _304
REMARK  122  A    between atoms: _304  and  _305
REMARK  123  A    between atoms: _307  and  _309
REMARK  124  A    between atoms: _309  and  _310
REMARK  125  A    between atoms: _313  and  _315
REMARK  126  A    between atoms: _315  and  _316
REMARK  127  A    between atoms: _315  and  _318
REMARK  128  A    between atoms: _318  and  _319
REMARK  129  A    between atoms: _322  and  _324
REMARK  130  A    between atoms: _324  and  _325
REMARK  131  A    between atoms: _324  and  _327
REMARK  132  A    between atoms: _327  and  _328
REMARK  133  A    between atoms: _331  and  _333
REMARK  134  A    between atoms: _333  and  _334
REMARK  135  A    between atoms: _333  and  _336
REMARK  136  A    between atoms: _336  and  _337
REMARK  137  A    between atoms: _340  and  _342
REMARK  138  A    between atoms: _342  and  _343
REMARK  139  A    between atoms: _342  and  _345
REMARK  140  A    between atoms: _348  and  _350
REMARK  141  A    between atoms: _350  and  _351
REMARK  142  A    between atoms: _350  and  _353
REMARK  143  A    between atoms: _353  and  _354
REMARK  144  A    between atoms: _357  and  _359
REMARK  145  A    between atoms: _359  and  _360
REMARK  146  A    between atoms: _359  and  _362
REMARK  147  A    between atoms: _362  and  _363
REMARK  148  A    between atoms: _363  and  _364
REMARK  149  A    between atoms: _364  and  _365
REMARK  150  A    between atoms: _365  and  _366
REMARK  151  A    between atoms: _370  and  _372
REMARK  152  A    between atoms: _372  and  _373
REMARK  153  A    between atoms: _372  and  _375
REMARK  154  A    between atoms: _375  and  _376
REMARK  155  A    between atoms: _376  and  _377
REMARK  156  A    between atoms: _379  and  _381
REMARK  157  A    between atoms: _381  and  _382
REMARK  158  A    between atoms: _381  and  _384
REMARK  159  A    between atoms: _384  and  _385
REMARK  160  A    between atoms: _388  and  _390
REMARK  161  A    between atoms: _390  and  _391
REMARK  162  A    between atoms: _393  and  _395
REMARK  163  A    between atoms: _395  and  _396
REMARK  164  A    between atoms: _398  and  _400
REMARK  165  A    between atoms: _400  and  _401
REMARK  166  A    between atoms: _400  and  _403
REMARK  167  A    between atoms: _403  and  _404
REMARK  168  A    between atoms: _407  and  _409
REMARK  169  A    between atoms: _409  and  _410
REMARK  170  A    between atoms: _412  and  _414
REMARK  171  A    between atoms: _414  and  _415
REMARK  172  A    between atoms: _417  and  _419
REMARK  173  A    between atoms: _419  and  _420
REMARK  174  A    between atoms: _419  and  _422
REMARK  175  A    between atoms: _422  and  _423
REMARK  176  A    between atoms: _429  and  _431
REMARK  177  A    between atoms: _431  and  _432
REMARK  178  A    between atoms: _431  and  _434
REMARK  179  A    between atoms: _434  and  _435
REMARK  180  A    between atoms: _438  and  _440
REMARK  181  A    between atoms: _440  and  _441
REMARK  182  A    between atoms: _440  and  _443
REMARK  183  A    between atoms: _446  and  _448
REMARK  184  A    between atoms: _448  and  _449
REMARK  185  A    between atoms: _448  and  _451
REMARK  186  A    between atoms: _451  and  _452
REMARK  187  A    between atoms: _455  and  _457
REMARK  188  A    between atoms: _457  and  _458
REMARK  189  A    between atoms: _457  and  _460
REMARK  190  A    between atoms: _460  and  _461
REMARK  191  A    between atoms: _465  and  _466
REMARK  192  A    between atoms: _471  and  _473
REMARK  193  A    between atoms: _473  and  _474
REMARK  194  A    between atoms: _473  and  _476
REMARK  195  A    between atoms: _479  and  _481
REMARK  196  A    between atoms: _481  and  _482
REMARK  197  A    between atoms: _481  and  _484
REMARK  198  A    between atoms: _484  and  _485
REMARK  199  A    between atoms: _490  and  _492
REMARK  200  A    between atoms: _492  and  _493
REMARK  201  A    between atoms: _492  and  _495
REMARK  202  A    between atoms: _495  and  _496
REMARK  203  A    between atoms: _499  and  _501
REMARK  204  A    between atoms: _501  and  _502
REMARK  205  A    between atoms: _501  and  _504
REMARK  206  A    between atoms: _504  and  _505
REMARK  207  A    between atoms: _508  and  _510
REMARK  208  A    between atoms: _510  and  _511
REMARK  209  A    between atoms: _513  and  _515
REMARK  210  A    between atoms: _515  and  _516
REMARK  211  A    between atoms: _515  and  _518
REMARK  212  A    between atoms: _518  and  _519
REMARK  213  A    between atoms: _519  and  _520
REMARK  214  A    between atoms: _520  and  _521
REMARK  215  A    between atoms: _530  and  _532
REMARK  216  A    between atoms: _532  and  _533
REMARK  217  A    between atoms: _532  and  _535
REMARK  218  A    between atoms: _535  and  _536
REMARK                            x       y       z     vdW  Elec       q    Type
REMARK                         _______ _______ _______ _____ _____    ______ ____
ROOT
ATOM      1  O   HOH     1       9.910  39.286  21.480  0.00  0.00    +0.000 OA
ENDROOT
TORSDOF 0
REMARK  Name = ../refined-set-2016/3o9e/3o9e_pocket.pdb
REMARK  218 active torsions:
REMARK  status: ('A' for Active; 'I' for Inactive)
REMARK    1  A    between atoms: _1  and  _3
REMARK    2  A    between atoms: _3  and  _4
REMARK    3  A    between atoms: _3  and  _6
REMARK    4  A    between atoms: _6  and  _7
REMARK    5  A    between atoms: _7  and  _8
REMARK    6  A    between atoms: _8  and  _9
REMARK    7  A    between atoms: _18  and  _20
REMARK    8  A    between atoms: _20  and  _21
REMARK    9  A    between atoms: _20  and  _23
REMARK   10  A    between atoms: _23  and  _24
REMARK   11  A    between atoms: _27  and  _29
REMARK   12  A    between atoms: _29  and  _30
REMARK   13  A    between atoms: _29  and  _32
REMARK   14  A    between atoms: _32  and  _33
REMARK   15  A    between atoms: _36  and  _38
REMARK   16  A    between atoms: _38  and  _39
REMARK   17  A    between atoms: _38  and  _41
REMARK   18  A    between atoms: _41  and  _42
REMARK   19  A    between atoms: _45  and  _47
REMARK   20  A    between atoms: _47  and  _48
REMARK   21  A    between atoms: _47  and  _50
REMARK   22  A    between atoms: _50  and  _51
REMARK   23  A    between atoms: _54  and  _56
REMARK   24  A    between atoms: _56  and  _57
REMARK   25  A    between atoms: _59  and  _61
REMARK   26  A    between atoms: _61  and  _62
REMARK   27  A    between atoms: _65  and  _67
REMARK   28  A    between atoms: _67  and  _68
REMARK   29  A    between atoms: _67  and  _70
REMARK   30  A    between atoms: _70  and  _71
REMARK   31  A    between atoms: _74  and  _76
REMARK   32  A    between atoms: _76  and  _77
REMARK   33  A    between atoms: _76  and  _79
REMARK   34  A    between atoms: _79  and  _80
REMARK   35  A    between atoms: _83  and  _85
REMARK   36  A    between atoms: _85  and  _86
REMARK   37  A    between atoms: _85  and  _88
REMARK   38  A    between atoms: _88  and  _89
REMARK   39  A    between atoms: _92  and  _94
REMARK   40  A    between atoms: _94  and  _95
REMARK   41  A    between atoms: _94  and  _97
REMARK   42  A    between atoms: _100  and  _102
REMARK   43  A    between atoms: _102  and  _103
REMARK   44  A    between atoms: _102  and  _105
REMARK   45  A    between atoms: _105  and  _106
REMARK   46  A    between atoms: _109  and  _111
REMARK   47  A    between atoms: _111  and  _112
REMARK   48  A    between atoms: _114  and  _116
REMARK   49  A    between atoms: _116  and  _117
REMARK   50  A    between atoms: _119  and  _121
REMARK   51  A    between atoms: _121  and  _122
REMARK   52  A    between atoms: _121  and  _124
REMARK   53  A    between atoms: _124  and  _125
REMARK   54  A    between atoms: _128  and  _130
REMARK   55  A    between atoms: _130  and  _131
REMARK   56  A    between atoms: _133  and  _135
REMARK   57  A    between atoms: _135  and  _136
REMARK   58  A    between atoms: _138  and  _140
REMARK   59  A    between atoms: _140  and  _141
REMARK   60  A    between atoms: _140  and  _143
REMARK   61  A    between atoms: _143  and  _144
REMARK   62  A    between atoms: _147  and  _149
REMARK   63  A    between atoms: _149  and  _150
REMARK   64  A    between atoms: _149  and  _152
REMARK   65  A    between atoms: _152  and  _153
REMARK   66  A    between atoms: _157  and  _158
REMARK   67  A    between atoms: _163  and  _165
REMARK   68  A    between atoms: _165  and  _166
REMARK   69  A    between atoms: _165  and  _168
REMARK   70  A    between atoms: _168  and  _169
REMARK   71  A    between atoms: _173  and  _174
REMARK   72  A    between atoms: _179  and  _181
REMARK   73  A    between atoms: _181  and  _182
REMARK   74  A    between atoms: _181  and  _184
REMARK   75  A    between atoms: _187  and  _189
REMARK   76  A    between atoms: _189  and  _190
REMARK   77  A    between atoms: _189  and  _192
REMARK   78  A    between atoms: _192  and  _193
REMARK   79  A    between atoms: _198  and  _200
REMARK   80  A    between atoms: _200  and  _201
REMARK   81  A    between atoms: _200  and  _203
REMARK   82  A    between atoms: _203  and  _204
REMARK   83  A    between atoms: _207  and  _209
REMARK   84  A    between atoms: _209  and  _210
REMARK   85  A    between atoms: _209  and  _212
REMARK   86  A    between atoms: _212  and  _213
REMARK   87  A    between atoms: _216  and  _218
REMARK   88  A    between atoms: _218  and  _219
REMARK   89  A    between atoms: _221  and  _223
REMARK   90  A    between atoms: _223  and  _224
REMARK   91  A    between atoms: _223  and  _226
REMARK   92  A    between atoms: _226  and  _227
REMARK   93  A    between atoms: _227  and  _228
REMARK   94  A    between atoms: _228  and  _229
REMARK   95  A    between atoms: _238  and  _240
REMARK   96  A    between atoms: _240  and  _241
REMARK   97  A    between atoms: _240  and  _243
REMARK   98  A    between atoms: _243  and  _244
REMARK   99  A    between atoms: _249  and  _251
REMARK  100  A    between atoms: _251  and  _252
REMARK  101  A    between atoms: _251  and  _254
REMARK  102  A    between atoms: _254  and  _255
REMARK  103  A    between atoms: _255  and  _256
REMARK  104  A    between atoms: _256  and  _257
REMARK  105  A    between atoms: _266  and  _268
REMARK  106  A    between atoms: _268  and  _269
REMARK  107  A    between atoms: _268  and  _271
REMARK  108  A    between atoms: _271  and  _272
REMARK  109  A    between atoms: _275  and  _277
REMARK  110  A    between atoms: _277  and  _278
REMARK  111  A    between atoms: _277  and  _280
REMARK  112  A    between atoms: _280  and  _281
REMARK  113  A    between atoms: _284  and  _286
REMARK  114  A    between atoms: _286  and  _287
REMARK  115  A    between atoms: _286  and  _289
REMARK  116  A    between atoms: _289  and  _290
REMARK  117  A    between atoms: _293  and  _295
REMARK  118  A    between atoms: _295  and  _296
REMARK  119  A    between atoms: _295  and  _298
REMARK  120  A    between atoms: _298  and  _299
REMARK  121  A    between atoms: _302  and  _304
REMARK  122  A    between atoms: _304  and  _305
REMARK  123  A    between atoms: _307  and  _309
REMARK  124  A    between atoms: _309  and  _310
REMARK  125  A    between atoms: _313  and  _315
REMARK  126  A    between atoms: _315  and  _316
REMARK  127  A    between atoms: _315  and  _318
REMARK  128  A    between atoms: _318  and  _319
REMARK  129  A    between atoms: _322  and  _324
REMARK  130  A    between atoms: _324  and  _325
REMARK  131  A    between atoms: _324  and  _327
REMARK  132  A    between atoms: _327  and  _328
REMARK  133  A    between atoms: _331  and  _333
REMARK  134  A    between atoms: _333  and  _334
REMARK  135  A    between atoms: _333  and  _336
REMARK  136  A    between atoms: _336  and  _337
REMARK  137  A    between atoms: _340  and  _342
REMARK  138  A    between atoms: _342  and  _343
REMARK  139  A    between atoms: _342  and  _345
REMARK  140  A    between atoms: _348  and  _350
REMARK  141  A    between atoms: _350  and  _351
REMARK  142  A    between atoms: _350  and  _353
REMARK  143  A    between atoms: _353  and  _354
REMARK  144  A    between atoms: _357  and  _359
REMARK  145  A    between atoms: _359  and  _360
REMARK  146  A    between atoms: _359  and  _362
REMARK  147  A    between atoms: _362  and  _363
REMARK  148  A    between atoms: _363  and  _364
REMARK  149  A    between atoms: _364  and  _365
REMARK  150  A    between atoms: _365  and  _366
REMARK  151  A    between atoms: _370  and  _372
REMARK  152  A    between atoms: _372  and  _373
REMARK  153  A    between atoms: _372  and  _375
REMARK  154  A    between atoms: _375  and  _376
REMARK  155  A    between atoms: _376  and  _377
REMARK  156  A    between atoms: _379  and  _381
REMARK  157  A    between atoms: _381  and  _382
REMARK  158  A    between atoms: _381  and  _384
REMARK  159  A    between atoms: _384  and  _385
REMARK  160  A    between atoms: _388  and  _390
REMARK  161  A    between atoms: _390  and  _391
REMARK  162  A    between atoms: _393  and  _395
REMARK  163  A    between atoms: _395  and  _396
REMARK  164  A    between atoms: _398  and  _400
REMARK  165  A    between atoms: _400  and  _401
REMARK  166  A    between atoms: _400  and  _403
REMARK  167  A    between atoms: _403  and  _404
REMARK  168  A    between atoms: _407  and  _409
REMARK  169  A    between atoms: _409  and  _410
REMARK  170  A    between atoms: _412  and  _414
REMARK  171  A    between atoms: _414  and  _415
REMARK  172  A    between atoms: _417  and  _419
REMARK  173  A    between atoms: _419  and  _420
REMARK  174  A    between atoms: _419  and  _422
REMARK  175  A    between atoms: _422  and  _423
REMARK  176  A    between atoms: _429  and  _431
REMARK  177  A    between atoms: _431  and  _432
REMARK  178  A    between atoms: _431  and  _434
REMARK  179  A    between atoms: _434  and  _435
REMARK  180  A    between atoms: _438  and  _440
REMARK  181  A    between atoms: _440  and  _441
REMARK  182  A    between atoms: _440  and  _443
REMARK  183  A    between atoms: _446  and  _448
REMARK  184  A    between atoms: _448  and  _449
REMARK  185  A    between atoms: _448  and  _451
REMARK  186  A    between atoms: _451  and  _452
REMARK  187  A    between atoms: _455  and  _457
REMARK  188  A    between atoms: _457  and  _458
REMARK  189  A    between atoms: _457  and  _460
REMARK  190  A    between atoms: _460  and  _461
REMARK  191  A    between atoms: _465  and  _466
REMARK  192  A    between atoms: _471  and  _473
REMARK  193  A    between atoms: _473  and  _474
REMARK  194  A    between atoms: _473  and  _476
REMARK  195  A    between atoms: _479  and  _481
REMARK  196  A    between atoms: _481  and  _482
REMARK  197  A    between atoms: _481  and  _484
REMARK  198  A    between atoms: _484  and  _485
REMARK  199  A    between atoms: _490  and  _492
REMARK  200  A    between atoms: _492  and  _493
REMARK  201  A    between atoms: _492  and  _495
REMARK  202  A    between atoms: _495  and  _496
REMARK  203  A    between atoms: _499  and  _501
REMARK  204  A    between atoms: _501  and  _502
REMARK  205  A    between atoms: _501  and  _504
REMARK  206  A    between atoms: _504  and  _505
REMARK  207  A    between atoms: _508  and  _510
REMARK  208  A    between atoms: _510  and  _511
REMARK  209  A    between atoms: _513  and  _515
REMARK  210  A    between atoms: _515  and  _516
REMARK  211  A    between atoms: _515  and  _518
REMARK  212  A    between atoms: _518  and  _519
REMARK  213  A    between atoms: _519  and  _520
REMARK  214  A    between atoms: _520  and  _521
REMARK  215  A    between atoms: _530  and  _532
REMARK  216  A    between atoms: _532  and  _533
REMARK  217  A    between atoms: _532  and  _535
REMARK  218  A    between atoms: _535  and  _536
REMARK                            x       y       z     vdW  Elec       q    Type
REMARK                         _______ _______ _______ _____ _____    ______ ____
ROOT
ATOM      1  O   HOH     1      20.462  34.135  21.486  0.00  0.00    +0.000 OA
ENDROOT
TORSDOF 0
REMARK  Name = ../refined-set-2016/3o9e/3o9e_pocket.pdb
REMARK  218 active torsions:
REMARK  status: ('A' for Active; 'I' for Inactive)
REMARK    1  A    between atoms: _1  and  _3
REMARK    2  A    between atoms: _3  and  _4
REMARK    3  A    between atoms: _3  and  _6
REMARK    4  A    between atoms: _6  and  _7
REMARK    5  A    between atoms: _7  and  _8
REMARK    6  A    between atoms: _8  and  _9
REMARK    7  A    between atoms: _18  and  _20
REMARK    8  A    between atoms: _20  and  _21
REMARK    9  A    between atoms: _20  and  _23
REMARK   10  A    between atoms: _23  and  _24
REMARK   11  A    between atoms: _27  and  _29
REMARK   12  A    between atoms: _29  and  _30
REMARK   13  A    between atoms: _29  and  _32
REMARK   14  A    between atoms: _32  and  _33
REMARK   15  A    between atoms: _36  and  _38
REMARK   16  A    between atoms: _38  and  _39
REMARK   17  A    between atoms: _38  and  _41
REMARK   18  A    between atoms: _41  and  _42
REMARK   19  A    between atoms: _45  and  _47
REMARK   20  A    between atoms: _47  and  _48
REMARK   21  A    between atoms: _47  and  _50
REMARK   22  A    between atoms: _50  and  _51
REMARK   23  A    between atoms: _54  and  _56
REMARK   24  A    between atoms: _56  and  _57
REMARK   25  A    between atoms: _59  and  _61
REMARK   26  A    between atoms: _61  and  _62
REMARK   27  A    between atoms: _65  and  _67
REMARK   28  A    between atoms: _67  and  _68
REMARK   29  A    between atoms: _67  and  _70
REMARK   30  A    between atoms: _70  and  _71
REMARK   31  A    between atoms: _74  and  _76
REMARK   32  A    between atoms: _76  and  _77
REMARK   33  A    between atoms: _76  and  _79
REMARK   34  A    between atoms: _79  and  _80
REMARK   35  A    between atoms: _83  and  _85
REMARK   36  A    between atoms: _85  and  _86
REMARK   37  A    between atoms: _85  and  _88
REMARK   38  A    between atoms: _88  and  _89
REMARK   39  A    between atoms: _92  and  _94
REMARK   40  A    between atoms: _94  and  _95
REMARK   41  A    between atoms: _94  and  _97
REMARK   42  A    between atoms: _100  and  _102
REMARK   43  A    between atoms: _102  and  _103
REMARK   44  A    between atoms: _102  and  _105
REMARK   45  A    between atoms: _105  and  _106
REMARK   46  A    between atoms: _109  and  _111
REMARK   47  A    between atoms: _111  and  _112
REMARK   48  A    between atoms: _114  and  _116
REMARK   49  A    between atoms: _116  and  _117
REMARK   50  A    between atoms: _119  and  _121
REMARK   51  A    between atoms: _121  and  _122
REMARK   52  A    between atoms: _121  and  _124
REMARK   53  A    between atoms: _124  and  _125
REMARK   54  A    between atoms: _128  and  _130
REMARK   55  A    between atoms: _130  and  _131
REMARK   56  A    between atoms: _133  and  _135
REMARK   57  A    between atoms: _135  and  _136
REMARK   58  A    between atoms: _138  and  _140
REMARK   59  A    between atoms: _140  and  _141
REMARK   60  A    between atoms: _140  and  _143
REMARK   61  A    between atoms: _143  and  _144
REMARK   62  A    between atoms: _147  and  _149
REMARK   63  A    between atoms: _149  and  _150
REMARK   64  A    between atoms: _149  and  _152
REMARK   65  A    between atoms: _152  and  _153
REMARK   66  A    between atoms: _157  and  _158
REMARK   67  A    between atoms: _163  and  _165
REMARK   68  A    between atoms: _165  and  _166
REMARK   69  A    between atoms: _165  and  _168
REMARK   70  A    between atoms: _168  and  _169
REMARK   71  A    between atoms: _173  and  _174
REMARK   72  A    between atoms: _179  and  _181
REMARK   73  A    between atoms: _181  and  _182
REMARK   74  A    between atoms: _181  and  _184
REMARK   75  A    between atoms: _187  and  _189
REMARK   76  A    between atoms: _189  and  _190
REMARK   77  A    between atoms: _189  and  _192
REMARK   78  A    between atoms: _192  and  _193
REMARK   79  A    between atoms: _198  and  _200
REMARK   80  A    between atoms: _200  and  _201
REMARK   81  A    between atoms: _200  and  _203
REMARK   82  A    between atoms: _203  and  _204
REMARK   83  A    between atoms: _207  and  _209
REMARK   84  A    between atoms: _209  and  _210
REMARK   85  A    between atoms: _209  and  _212
REMARK   86  A    between atoms: _212  and  _213
REMARK   87  A    between atoms: _216  and  _218
REMARK   88  A    between atoms: _218  and  _219
REMARK   89  A    between atoms: _221  and  _223
REMARK   90  A    between atoms: _223  and  _224
REMARK   91  A    between atoms: _223  and  _226
REMARK   92  A    between atoms: _226  and  _227
REMARK   93  A    between atoms: _227  and  _228
REMARK   94  A    between atoms: _228  and  _229
REMARK   95  A    between atoms: _238  and  _240
REMARK   96  A    between atoms: _240  and  _241
REMARK   97  A    between atoms: _240  and  _243
REMARK   98  A    between atoms: _243  and  _244
REMARK   99  A    between atoms: _249  and  _251
REMARK  100  A    between atoms: _251  and  _252
REMARK  101  A    between atoms: _251  and  _254
REMARK  102  A    between atoms: _254  and  _255
REMARK  103  A    between atoms: _255  and  _256
REMARK  104  A    between atoms: _256  and  _257
REMARK  105  A    between atoms: _266  and  _268
REMARK  106  A    between atoms: _268  and  _269
REMARK  107  A    between atoms: _268  and  _271
REMARK  108  A    between atoms: _271  and  _272
REMARK  109  A    between atoms: _275  and  _277
REMARK  110  A    between atoms: _277  and  _278
REMARK  111  A    between atoms: _277  and  _280
REMARK  112  A    between atoms: _280  and  _281
REMARK  113  A    between atoms: _284  and  _286
REMARK  114  A    between atoms: _286  and  _287
REMARK  115  A    between atoms: _286  and  _289
REMARK  116  A    between atoms: _289  and  _290
REMARK  117  A    between atoms: _293  and  _295
REMARK  118  A    between atoms: _295  and  _296
REMARK  119  A    between atoms: _295  and  _298
REMARK  120  A    between atoms: _298  and  _299
REMARK  121  A    between atoms: _302  and  _304
REMARK  122  A    between atoms: _304  and  _305
REMARK  123  A    between atoms: _307  and  _309
REMARK  124  A    between atoms: _309  and  _310
REMARK  125  A    between atoms: _313  and  _315
REMARK  126  A    between atoms: _315  and  _316
REMARK  127  A    between atoms: _315  and  _318
REMARK  128  A    between atoms: _318  and  _319
REMARK  129  A    between atoms: _322  and  _324
REMARK  130  A    between atoms: _324  and  _325
REMARK  131  A    between atoms: _324  and  _327
REMARK  132  A    between atoms: _327  and  _328
REMARK  133  A    between atoms: _331  and  _333
REMARK  134  A    between atoms: _333  and  _334
REMARK  135  A    between atoms: _333  and  _336
REMARK  136  A    between atoms: _336  and  _337
REMARK  137  A    between atoms: _340  and  _342
REMARK  138  A    between atoms: _342  and  _343
REMARK  139  A    between atoms: _342  and  _345
REMARK  140  A    between atoms: _348  and  _350
REMARK  141  A    between atoms: _350  and  _351
REMARK  142  A    between atoms: _350  and  _353
REMARK  143  A    between atoms: _353  and  _354
REMARK  144  A    between atoms: _357  and  _359
REMARK  145  A    between atoms: _359  and  _360
REMARK  146  A    between atoms: _359  and  _362
REMARK  147  A    between atoms: _362  and  _363
REMARK  148  A    between atoms: _363  and  _364
REMARK  149  A    between atoms: _364  and  _365
REMARK  150  A    between atoms: _365  and  _366
REMARK  151  A    between atoms: _370  and  _372
REMARK  152  A    between atoms: _372  and  _373
REMARK  153  A    between atoms: _372  and  _375
REMARK  154  A    between atoms: _375  and  _376
REMARK  155  A    between atoms: _376  and  _377
REMARK  156  A    between atoms: _379  and  _381
REMARK  157  A    between atoms: _381  and  _382
REMARK  158  A    between atoms: _381  and  _384
REMARK  159  A    between atoms: _384  and  _385
REMARK  160  A    between atoms: _388  and  _390
REMARK  161  A    between atoms: _390  and  _391
REMARK  162  A    between atoms: _393  and  _395
REMARK  163  A    between atoms: _395  and  _396
REMARK  164  A    between atoms: _398  and  _400
REMARK  165  A    between atoms: _400  and  _401
REMARK  166  A    between atoms: _400  and  _403
REMARK  167  A    between atoms: _403  and  _404
REMARK  168  A    between atoms: _407  and  _409
REMARK  169  A    between atoms: _409  and  _410
REMARK  170  A    between atoms: _412  and  _414
REMARK  171  A    between atoms: _414  and  _415
REMARK  172  A    between atoms: _417  and  _419
REMARK  173  A    between atoms: _419  and  _420
REMARK  174  A    between atoms: _419  and  _422
REMARK  175  A    between atoms: _422  and  _423
REMARK  176  A    between atoms: _429  and  _431
REMARK  177  A    between atoms: _431  and  _432
REMARK  178  A    between atoms: _431  and  _434
REMARK  179  A    between atoms: _434  and  _435
REMARK  180  A    between atoms: _438  and  _440
REMARK  181  A    between atoms: _440  and  _441
REMARK  182  A    between atoms: _440  and  _443
REMARK  183  A    between atoms: _446  and  _448
REMARK  184  A    between atoms: _448  and  _449
REMARK  185  A    between atoms: _448  and  _451
REMARK  186  A    between atoms: _451  and  _452
REMARK  187  A    between atoms: _455  and  _457
REMARK  188  A    between atoms: _457  and  _458
REMARK  189  A    between atoms: _457  and  _460
REMARK  190  A    between atoms: _460  and  _461
REMARK  191  A    between atoms: _465  and  _466
REMARK  192  A    between atoms: _471  and  _473
REMARK  193  A    between atoms: _473  and  _474
REMARK  194  A    between atoms: _473  and  _476
REMARK  195  A    between atoms: _479  and  _481
REMARK  196  A    between atoms: _481  and  _482
REMARK  197  A    between atoms: _481  and  _484
REMARK  198  A    between atoms: _484  and  _485
REMARK  199  A    between atoms: _490  and  _492
REMARK  200  A    between atoms: _492  and  _493
REMARK  201  A    between atoms: _492  and  _495
REMARK  202  A    between atoms: _495  and  _496
REMARK  203  A    between atoms: _499  and  _501
REMARK  204  A    between atoms: _501  and  _502
REMARK  205  A    between atoms: _501  and  _504
REMARK  206  A    between atoms: _504  and  _505
REMARK  207  A    between atoms: _508  and  _510
REMARK  208  A    between atoms: _510  and  _511
REMARK  209  A    between atoms: _513  and  _515
REMARK  210  A    between atoms: _515  and  _516
REMARK  211  A    between atoms: _515  and  _518
REMARK  212  A    between atoms: _518  and  _519
REMARK  213  A    between atoms: _519  and  _520
REMARK  214  A    between atoms: _520  and  _521
REMARK  215  A    between atoms: _530  and  _532
REMARK  216  A    between atoms: _532  and  _533
REMARK  217  A    between atoms: _532  and  _535
REMARK  218  A    between atoms: _535  and  _536
REMARK                            x       y       z     vdW  Elec       q    Type
REMARK                         _______ _______ _______ _____ _____    ______ ____
ROOT
ATOM      1  O   HOH     1      18.745  36.821  17.397  0.00  0.00    +0.000 OA
ENDROOT
TORSDOF 0
REMARK  Name = ../refined-set-2016/3o9e/3o9e_pocket.pdb
REMARK  218 active torsions:
REMARK  status: ('A' for Active; 'I' for Inactive)
REMARK    1  A    between atoms: _1  and  _3
REMARK    2  A    between atoms: _3  and  _4
REMARK    3  A    between atoms: _3  and  _6
REMARK    4  A    between atoms: _6  and  _7
REMARK    5  A    between atoms: _7  and  _8
REMARK    6  A    between atoms: _8  and  _9
REMARK    7  A    between atoms: _18  and  _20
REMARK    8  A    between atoms: _20  and  _21
REMARK    9  A    between atoms: _20  and  _23
REMARK   10  A    between atoms: _23  and  _24
REMARK   11  A    between atoms: _27  and  _29
REMARK   12  A    between atoms: _29  and  _30
REMARK   13  A    between atoms: _29  and  _32
REMARK   14  A    between atoms: _32  and  _33
REMARK   15  A    between atoms: _36  and  _38
REMARK   16  A    between atoms: _38  and  _39
REMARK   17  A    between atoms: _38  and  _41
REMARK   18  A    between atoms: _41  and  _42
REMARK   19  A    between atoms: _45  and  _47
REMARK   20  A    between atoms: _47  and  _48
REMARK   21  A    between atoms: _47  and  _50
REMARK   22  A    between atoms: _50  and  _51
REMARK   23  A    between atoms: _54  and  _56
REMARK   24  A    between atoms: _56  and  _57
REMARK   25  A    between atoms: _59  and  _61
REMARK   26  A    between atoms: _61  and  _62
REMARK   27  A    between atoms: _65  and  _67
REMARK   28  A    between atoms: _67  and  _68
REMARK   29  A    between atoms: _67  and  _70
REMARK   30  A    between atoms: _70  and  _71
REMARK   31  A    between atoms: _74  and  _76
REMARK   32  A    between atoms: _76  and  _77
REMARK   33  A    between atoms: _76  and  _79
REMARK   34  A    between atoms: _79  and  _80
REMARK   35  A    between atoms: _83  and  _85
REMARK   36  A    between atoms: _85  and  _86
REMARK   37  A    between atoms: _85  and  _88
REMARK   38  A    between atoms: _88  and  _89
REMARK   39  A    between atoms: _92  and  _94
REMARK   40  A    between atoms: _94  and  _95
REMARK   41  A    between atoms: _94  and  _97
REMARK   42  A    between atoms: _100  and  _102
REMARK   43  A    between atoms: _102  and  _103
REMARK   44  A    between atoms: _102  and  _105
REMARK   45  A    between atoms: _105  and  _106
REMARK   46  A    between atoms: _109  and  _111
REMARK   47  A    between atoms: _111  and  _112
REMARK   48  A    between atoms: _114  and  _116
REMARK   49  A    between atoms: _116  and  _117
REMARK   50  A    between atoms: _119  and  _121
REMARK   51  A    between atoms: _121  and  _122
REMARK   52  A    between atoms: _121  and  _124
REMARK   53  A    between atoms: _124  and  _125
REMARK   54  A    between atoms: _128  and  _130
REMARK   55  A    between atoms: _130  and  _131
REMARK   56  A    between atoms: _133  and  _135
REMARK   57  A    between atoms: _135  and  _136
REMARK   58  A    between atoms: _138  and  _140
REMARK   59  A    between atoms: _140  and  _141
REMARK   60  A    between atoms: _140  and  _143
REMARK   61  A    between atoms: _143  and  _144
REMARK   62  A    between atoms: _147  and  _149
REMARK   63  A    between atoms: _149  and  _150
REMARK   64  A    between atoms: _149  and  _152
REMARK   65  A    between atoms: _152  and  _153
REMARK   66  A    between atoms: _157  and  _158
REMARK   67  A    between atoms: _163  and  _165
REMARK   68  A    between atoms: _165  and  _166
REMARK   69  A    between atoms: _165  and  _168
REMARK   70  A    between atoms: _168  and  _169
REMARK   71  A    between atoms: _173  and  _174
REMARK   72  A    between atoms: _179  and  _181
REMARK   73  A    between atoms: _181  and  _182
REMARK   74  A    between atoms: _181  and  _184
REMARK   75  A    between atoms: _187  and  _189
REMARK   76  A    between atoms: _189  and  _190
REMARK   77  A    between atoms: _189  and  _192
REMARK   78  A    between atoms: _192  and  _193
REMARK   79  A    between atoms: _198  and  _200
REMARK   80  A    between atoms: _200  and  _201
REMARK   81  A    between atoms: _200  and  _203
REMARK   82  A    between atoms: _203  and  _204
REMARK   83  A    between atoms: _207  and  _209
REMARK   84  A    between atoms: _209  and  _210
REMARK   85  A    between atoms: _209  and  _212
REMARK   86  A    between atoms: _212  and  _213
REMARK   87  A    between atoms: _216  and  _218
REMARK   88  A    between atoms: _218  and  _219
REMARK   89  A    between atoms: _221  and  _223
REMARK   90  A    between atoms: _223  and  _224
REMARK   91  A    between atoms: _223  and  _226
REMARK   92  A    between atoms: _226  and  _227
REMARK   93  A    between atoms: _227  and  _228
REMARK   94  A    between atoms: _228  and  _229
REMARK   95  A    between atoms: _238  and  _240
REMARK   96  A    between atoms: _240  and  _241
REMARK   97  A    between atoms: _240  and  _243
REMARK   98  A    between atoms: _243  and  _244
REMARK   99  A    between atoms: _249  and  _251
REMARK  100  A    between atoms: _251  and  _252
REMARK  101  A    between atoms: _251  and  _254
REMARK  102  A    between atoms: _254  and  _255
REMARK  103  A    between atoms: _255  and  _256
REMARK  104  A    between atoms: _256  and  _257
REMARK  105  A    between atoms: _266  and  _268
REMARK  106  A    between atoms: _268  and  _269
REMARK  107  A    between atoms: _268  and  _271
REMARK  108  A    between atoms: _271  and  _272
REMARK  109  A    between atoms: _275  and  _277
REMARK  110  A    between atoms: _277  and  _278
REMARK  111  A    between atoms: _277  and  _280
REMARK  112  A    between atoms: _280  and  _281
REMARK  113  A    between atoms: _284  and  _286
REMARK  114  A    between atoms: _286  and  _287
REMARK  115  A    between atoms: _286  and  _289
REMARK  116  A    between atoms: _289  and  _290
REMARK  117  A    between atoms: _293  and  _295
REMARK  118  A    between atoms: _295  and  _296
REMARK  119  A    between atoms: _295  and  _298
REMARK  120  A    between atoms: _298  and  _299
REMARK  121  A    between atoms: _302  and  _304
REMARK  122  A    between atoms: _304  and  _305
REMARK  123  A    between atoms: _307  and  _309
REMARK  124  A    between atoms: _309  and  _310
REMARK  125  A    between atoms: _313  and  _315
REMARK  126  A    between atoms: _315  and  _316
REMARK  127  A    between atoms: _315  and  _318
REMARK  128  A    between atoms: _318  and  _319
REMARK  129  A    between atoms: _322  and  _324
REMARK  130  A    between atoms: _324  and  _325
REMARK  131  A    between atoms: _324  and  _327
REMARK  132  A    between atoms: _327  and  _328
REMARK  133  A    between atoms: _331  and  _333
REMARK  134  A    between atoms: _333  and  _334
REMARK  135  A    between atoms: _333  and  _336
REMARK  136  A    between atoms: _336  and  _337
REMARK  137  A    between atoms: _340  and  _342
REMARK  138  A    between atoms: _342  and  _343
REMARK  139  A    between atoms: _342  and  _345
REMARK  140  A    between atoms: _348  and  _350
REMARK  141  A    between atoms: _350  and  _351
REMARK  142  A    between atoms: _350  and  _353
REMARK  143  A    between atoms: _353  and  _354
REMARK  144  A    between atoms: _357  and  _359
REMARK  145  A    between atoms: _359  and  _360
REMARK  146  A    between atoms: _359  and  _362
REMARK  147  A    between atoms: _362  and  _363
REMARK  148  A    between atoms: _363  and  _364
REMARK  149  A    between atoms: _364  and  _365
REMARK  150  A    between atoms: _365  and  _366
REMARK  151  A    between atoms: _370  and  _372
REMARK  152  A    between atoms: _372  and  _373
REMARK  153  A    between atoms: _372  and  _375
REMARK  154  A    between atoms: _375  and  _376
REMARK  155  A    between atoms: _376  and  _377
REMARK  156  A    between atoms: _379  and  _381
REMARK  157  A    between atoms: _381  and  _382
REMARK  158  A    between atoms: _381  and  _384
REMARK  159  A    between atoms: _384  and  _385
REMARK  160  A    between atoms: _388  and  _390
REMARK  161  A    between atoms: _390  and  _391
REMARK  162  A    between atoms: _393  and  _395
REMARK  163  A    between atoms: _395  and  _396
REMARK  164  A    between atoms: _398  and  _400
REMARK  165  A    between atoms: _400  and  _401
REMARK  166  A    between atoms: _400  and  _403
REMARK  167  A    between atoms: _403  and  _404
REMARK  168  A    between atoms: _407  and  _409
REMARK  169  A    between atoms: _409  and  _410
REMARK  170  A    between atoms: _412  and  _414
REMARK  171  A    between atoms: _414  and  _415
REMARK  172  A    between atoms: _417  and  _419
REMARK  173  A    between atoms: _419  and  _420
REMARK  174  A    between atoms: _419  and  _422
REMARK  175  A    between atoms: _422  and  _423
REMARK  176  A    between atoms: _429  and  _431
REMARK  177  A    between atoms: _431  and  _432
REMARK  178  A    between atoms: _431  and  _434
REMARK  179  A    between atoms: _434  and  _435
REMARK  180  A    between atoms: _438  and  _440
REMARK  181  A    between atoms: _440  and  _441
REMARK  182  A    between atoms: _440  and  _443
REMARK  183  A    between atoms: _446  and  _448
REMARK  184  A    between atoms: _448  and  _449
REMARK  185  A    between atoms: _448  and  _451
REMARK  186  A    between atoms: _451  and  _452
REMARK  187  A    between atoms: _455  and  _457
REMARK  188  A    between atoms: _457  and  _458
REMARK  189  A    between atoms: _457  and  _460
REMARK  190  A    between atoms: _460  and  _461
REMARK  191  A    between atoms: _465  and  _466
REMARK  192  A    between atoms: _471  and  _473
REMARK  193  A    between atoms: _473  and  _474
REMARK  194  A    between atoms: _473  and  _476
REMARK  195  A    between atoms: _479  and  _481
REMARK  196  A    between atoms: _481  and  _482
REMARK  197  A    between atoms: _481  and  _484
REMARK  198  A    between atoms: _484  and  _485
REMARK  199  A    between atoms: _490  and  _492
REMARK  200  A    between atoms: _492  and  _493
REMARK  201  A    between atoms: _492  and  _495
REMARK  202  A    between atoms: _495  and  _496
REMARK  203  A    between atoms: _499  and  _501
REMARK  204  A    between atoms: _501  and  _502
REMARK  205  A    between atoms: _501  and  _504
REMARK  206  A    between atoms: _504  and  _505
REMARK  207  A    between atoms: _508  and  _510
REMARK  208  A    between atoms: _510  and  _511
REMARK  209  A    between atoms: _513  and  _515
REMARK  210  A    between atoms: _515  and  _516
REMARK  211  A    between atoms: _515  and  _518
REMARK  212  A    between atoms: _518  and  _519
REMARK  213  A    between atoms: _519  and  _520
REMARK  214  A    between atoms: _520  and  _521
REMARK  215  A    between atoms: _530  and  _532
REMARK  216  A    between atoms: _532  and  _533
REMARK  217  A    between atoms: _532  and  _535
REMARK  218  A    between atoms: _535  and  _536
REMARK                            x       y       z     vdW  Elec       q    Type
REMARK                         _______ _______ _______ _____ _____    ______ ____
ROOT
ATOM      1  O   HOH     1      19.444  24.152   7.469  0.00  0.00    +0.000 OA
ENDROOT
TORSDOF 0
REMARK  Name = ../refined-set-2016/3o9e/3o9e_pocket.pdb
REMARK  218 active torsions:
REMARK  status: ('A' for Active; 'I' for Inactive)
REMARK    1  A    between atoms: _1  and  _3
REMARK    2  A    between atoms: _3  and  _4
REMARK    3  A    between atoms: _3  and  _6
REMARK    4  A    between atoms: _6  and  _7
REMARK    5  A    between atoms: _7  and  _8
REMARK    6  A    between atoms: _8  and  _9
REMARK    7  A    between atoms: _18  and  _20
REMARK    8  A    between atoms: _20  and  _21
REMARK    9  A    between atoms: _20  and  _23
REMARK   10  A    between atoms: _23  and  _24
REMARK   11  A    between atoms: _27  and  _29
REMARK   12  A    between atoms: _29  and  _30
REMARK   13  A    between atoms: _29  and  _32
REMARK   14  A    between atoms: _32  and  _33
REMARK   15  A    between atoms: _36  and  _38
REMARK   16  A    between atoms: _38  and  _39
REMARK   17  A    between atoms: _38  and  _41
REMARK   18  A    between atoms: _41  and  _42
REMARK   19  A    between atoms: _45  and  _47
REMARK   20  A    between atoms: _47  and  _48
REMARK   21  A    between atoms: _47  and  _50
REMARK   22  A    between atoms: _50  and  _51
REMARK   23  A    between atoms: _54  and  _56
REMARK   24  A    between atoms: _56  and  _57
REMARK   25  A    between atoms: _59  and  _61
REMARK   26  A    between atoms: _61  and  _62
REMARK   27  A    between atoms: _65  and  _67
REMARK   28  A    between atoms: _67  and  _68
REMARK   29  A    between atoms: _67  and  _70
REMARK   30  A    between atoms: _70  and  _71
REMARK   31  A    between atoms: _74  and  _76
REMARK   32  A    between atoms: _76  and  _77
REMARK   33  A    between atoms: _76  and  _79
REMARK   34  A    between atoms: _79  and  _80
REMARK   35  A    between atoms: _83  and  _85
REMARK   36  A    between atoms: _85  and  _86
REMARK   37  A    between atoms: _85  and  _88
REMARK   38  A    between atoms: _88  and  _89
REMARK   39  A    between atoms: _92  and  _94
REMARK   40  A    between atoms: _94  and  _95
REMARK   41  A    between atoms: _94  and  _97
REMARK   42  A    between atoms: _100  and  _102
REMARK   43  A    between atoms: _102  and  _103
REMARK   44  A    between atoms: _102  and  _105
REMARK   45  A    between atoms: _105  and  _106
REMARK   46  A    between atoms: _109  and  _111
REMARK   47  A    between atoms: _111  and  _112
REMARK   48  A    between atoms: _114  and  _116
REMARK   49  A    between atoms: _116  and  _117
REMARK   50  A    between atoms: _119  and  _121
REMARK   51  A    between atoms: _121  and  _122
REMARK   52  A    between atoms: _121  and  _124
REMARK   53  A    between atoms: _124  and  _125
REMARK   54  A    between atoms: _128  and  _130
REMARK   55  A    between atoms: _130  and  _131
REMARK   56  A    between atoms: _133  and  _135
REMARK   57  A    between atoms: _135  and  _136
REMARK   58  A    between atoms: _138  and  _140
REMARK   59  A    between atoms: _140  and  _141
REMARK   60  A    between atoms: _140  and  _143
REMARK   61  A    between atoms: _143  and  _144
REMARK   62  A    between atoms: _147  and  _149
REMARK   63  A    between atoms: _149  and  _150
REMARK   64  A    between atoms: _149  and  _152
REMARK   65  A    between atoms: _152  and  _153
REMARK   66  A    between atoms: _157  and  _158
REMARK   67  A    between atoms: _163  and  _165
REMARK   68  A    between atoms: _165  and  _166
REMARK   69  A    between atoms: _165  and  _168
REMARK   70  A    between atoms: _168  and  _169
REMARK   71  A    between atoms: _173  and  _174
REMARK   72  A    between atoms: _179  and  _181
REMARK   73  A    between atoms: _181  and  _182
REMARK   74  A    between atoms: _181  and  _184
REMARK   75  A    between atoms: _187  and  _189
REMARK   76  A    between atoms: _189  and  _190
REMARK   77  A    between atoms: _189  and  _192
REMARK   78  A    between atoms: _192  and  _193
REMARK   79  A    between atoms: _198  and  _200
REMARK   80  A    between atoms: _200  and  _201
REMARK   81  A    between atoms: _200  and  _203
REMARK   82  A    between atoms: _203  and  _204
REMARK   83  A    between atoms: _207  and  _209
REMARK   84  A    between atoms: _209  and  _210
REMARK   85  A    between atoms: _209  and  _212
REMARK   86  A    between atoms: _212  and  _213
REMARK   87  A    between atoms: _216  and  _218
REMARK   88  A    between atoms: _218  and  _219
REMARK   89  A    between atoms: _221  and  _223
REMARK   90  A    between atoms: _223  and  _224
REMARK   91  A    between atoms: _223  and  _226
REMARK   92  A    between atoms: _226  and  _227
REMARK   93  A    between atoms: _227  and  _228
REMARK   94  A    between atoms: _228  and  _229
REMARK   95  A    between atoms: _238  and  _240
REMARK   96  A    between atoms: _240  and  _241
REMARK   97  A    between atoms: _240  and  _243
REMARK   98  A    between atoms: _243  and  _244
REMARK   99  A    between atoms: _249  and  _251
REMARK  100  A    between atoms: _251  and  _252
REMARK  101  A    between atoms: _251  and  _254
REMARK  102  A    between atoms: _254  and  _255
REMARK  103  A    between atoms: _255  and  _256
REMARK  104  A    between atoms: _256  and  _257
REMARK  105  A    between atoms: _266  and  _268
REMARK  106  A    between atoms: _268  and  _269
REMARK  107  A    between atoms: _268  and  _271
REMARK  108  A    between atoms: _271  and  _272
REMARK  109  A    between atoms: _275  and  _277
REMARK  110  A    between atoms: _277  and  _278
REMARK  111  A    between atoms: _277  and  _280
REMARK  112  A    between atoms: _280  and  _281
REMARK  113  A    between atoms: _284  and  _286
REMARK  114  A    between atoms: _286  and  _287
REMARK  115  A    between atoms: _286  and  _289
REMARK  116  A    between atoms: _289  and  _290
REMARK  117  A    between atoms: _293  and  _295
REMARK  118  A    between atoms: _295  and  _296
REMARK  119  A    between atoms: _295  and  _298
REMARK  120  A    between atoms: _298  and  _299
REMARK  121  A    between atoms: _302  and  _304
REMARK  122  A    between atoms: _304  and  _305
REMARK  123  A    between atoms: _307  and  _309
REMARK  124  A    between atoms: _309  and  _310
REMARK  125  A    between atoms: _313  and  _315
REMARK  126  A    between atoms: _315  and  _316
REMARK  127  A    between atoms: _315  and  _318
REMARK  128  A    between atoms: _318  and  _319
REMARK  129  A    between atoms: _322  and  _324
REMARK  130  A    between atoms: _324  and  _325
REMARK  131  A    between atoms: _324  and  _327
REMARK  132  A    between atoms: _327  and  _328
REMARK  133  A    between atoms: _331  and  _333
REMARK  134  A    between atoms: _333  and  _334
REMARK  135  A    between atoms: _333  and  _336
REMARK  136  A    between atoms: _336  and  _337
REMARK  137  A    between atoms: _340  and  _342
REMARK  138  A    between atoms: _342  and  _343
REMARK  139  A    between atoms: _342  and  _345
REMARK  140  A    between atoms: _348  and  _350
REMARK  141  A    between atoms: _350  and  _351
REMARK  142  A    between atoms: _350  and  _353
REMARK  143  A    between atoms: _353  and  _354
REMARK  144  A    between atoms: _357  and  _359
REMARK  145  A    between atoms: _359  and  _360
REMARK  146  A    between atoms: _359  and  _362
REMARK  147  A    between atoms: _362  and  _363
REMARK  148  A    between atoms: _363  and  _364
REMARK  149  A    between atoms: _364  and  _365
REMARK  150  A    between atoms: _365  and  _366
REMARK  151  A    between atoms: _370  and  _372
REMARK  152  A    between atoms: _372  and  _373
REMARK  153  A    between atoms: _372  and  _375
REMARK  154  A    between atoms: _375  and  _376
REMARK  155  A    between atoms: _376  and  _377
REMARK  156  A    between atoms: _379  and  _381
REMARK  157  A    between atoms: _381  and  _382
REMARK  158  A    between atoms: _381  and  _384
REMARK  159  A    between atoms: _384  and  _385
REMARK  160  A    between atoms: _388  and  _390
REMARK  161  A    between atoms: _390  and  _391
REMARK  162  A    between atoms: _393  and  _395
REMARK  163  A    between atoms: _395  and  _396
REMARK  164  A    between atoms: _398  and  _400
REMARK  165  A    between atoms: _400  and  _401
REMARK  166  A    between atoms: _400  and  _403
REMARK  167  A    between atoms: _403  and  _404
REMARK  168  A    between atoms: _407  and  _409
REMARK  169  A    between atoms: _409  and  _410
REMARK  170  A    between atoms: _412  and  _414
REMARK  171  A    between atoms: _414  and  _415
REMARK  172  A    between atoms: _417  and  _419
REMARK  173  A    between atoms: _419  and  _420
REMARK  174  A    between atoms: _419  and  _422
REMARK  175  A    between atoms: _422  and  _423
REMARK  176  A    between atoms: _429  and  _431
REMARK  177  A    between atoms: _431  and  _432
REMARK  178  A    between atoms: _431  and  _434
REMARK  179  A    between atoms: _434  and  _435
REMARK  180  A    between atoms: _438  and  _440
REMARK  181  A    between atoms: _440  and  _441
REMARK  182  A    between atoms: _440  and  _443
REMARK  183  A    between atoms: _446  and  _448
REMARK  184  A    between atoms: _448  and  _449
REMARK  185  A    between atoms: _448  and  _451
REMARK  186  A    between atoms: _451  and  _452
REMARK  187  A    between atoms: _455  and  _457
REMARK  188  A    between atoms: _457  and  _458
REMARK  189  A    between atoms: _457  and  _460
REMARK  190  A    between atoms: _460  and  _461
REMARK  191  A    between atoms: _465  and  _466
REMARK  192  A    between atoms: _471  and  _473
REMARK  193  A    between atoms: _473  and  _474
REMARK  194  A    between atoms: _473  and  _476
REMARK  195  A    between atoms: _479  and  _481
REMARK  196  A    between atoms: _481  and  _482
REMARK  197  A    between atoms: _481  and  _484
REMARK  198  A    between atoms: _484  and  _485
REMARK  199  A    between atoms: _490  and  _492
REMARK  200  A    between atoms: _492  and  _493
REMARK  201  A    between atoms: _492  and  _495
REMARK  202  A    between atoms: _495  and  _496
REMARK  203  A    between atoms: _499  and  _501
REMARK  204  A    between atoms: _501  and  _502
REMARK  205  A    between atoms: _501  and  _504
REMARK  206  A    between atoms: _504  and  _505
REMARK  207  A    between atoms: _508  and  _510
REMARK  208  A    between atoms: _510  and  _511
REMARK  209  A    between atoms: _513  and  _515
REMARK  210  A    between atoms: _515  and  _516
REMARK  211  A    between atoms: _515  and  _518
REMARK  212  A    between atoms: _518  and  _519
REMARK  213  A    between atoms: _519  and  _520
REMARK  214  A    between atoms: _520  and  _521
REMARK  215  A    between atoms: _530  and  _532
REMARK  216  A    between atoms: _532  and  _533
REMARK  217  A    between atoms: _532  and  _535
REMARK  218  A    between atoms: _535  and  _536
REMARK                            x       y       z     vdW  Elec       q    Type
REMARK                         _______ _______ _______ _____ _____    ______ ____
ROOT
ATOM      1  O   HOH     1      17.147  25.411   6.575  0.00  0.00    +0.000 OA
ENDROOT
TORSDOF 0
REMARK  Name = ../refined-set-2016/3o9e/3o9e_pocket.pdb
REMARK  218 active torsions:
REMARK  status: ('A' for Active; 'I' for Inactive)
REMARK    1  A    between atoms: _1  and  _3
REMARK    2  A    between atoms: _3  and  _4
REMARK    3  A    between atoms: _3  and  _6
REMARK    4  A    between atoms: _6  and  _7
REMARK    5  A    between atoms: _7  and  _8
REMARK    6  A    between atoms: _8  and  _9
REMARK    7  A    between atoms: _18  and  _20
REMARK    8  A    between atoms: _20  and  _21
REMARK    9  A    between atoms: _20  and  _23
REMARK   10  A    between atoms: _23  and  _24
REMARK   11  A    between atoms: _27  and  _29
REMARK   12  A    between atoms: _29  and  _30
REMARK   13  A    between atoms: _29  and  _32
REMARK   14  A    between atoms: _32  and  _33
REMARK   15  A    between atoms: _36  and  _38
REMARK   16  A    between atoms: _38  and  _39
REMARK   17  A    between atoms: _38  and  _41
REMARK   18  A    between atoms: _41  and  _42
REMARK   19  A    between atoms: _45  and  _47
REMARK   20  A    between atoms: _47  and  _48
REMARK   21  A    between atoms: _47  and  _50
REMARK   22  A    between atoms: _50  and  _51
REMARK   23  A    between atoms: _54  and  _56
REMARK   24  A    between atoms: _56  and  _57
REMARK   25  A    between atoms: _59  and  _61
REMARK   26  A    between atoms: _61  and  _62
REMARK   27  A    between atoms: _65  and  _67
REMARK   28  A    between atoms: _67  and  _68
REMARK   29  A    between atoms: _67  and  _70
REMARK   30  A    between atoms: _70  and  _71
REMARK   31  A    between atoms: _74  and  _76
REMARK   32  A    between atoms: _76  and  _77
REMARK   33  A    between atoms: _76  and  _79
REMARK   34  A    between atoms: _79  and  _80
REMARK   35  A    between atoms: _83  and  _85
REMARK   36  A    between atoms: _85  and  _86
REMARK   37  A    between atoms: _85  and  _88
REMARK   38  A    between atoms: _88  and  _89
REMARK   39  A    between atoms: _92  and  _94
REMARK   40  A    between atoms: _94  and  _95
REMARK   41  A    between atoms: _94  and  _97
REMARK   42  A    between atoms: _100  and  _102
REMARK   43  A    between atoms: _102  and  _103
REMARK   44  A    between atoms: _102  and  _105
REMARK   45  A    between atoms: _105  and  _106
REMARK   46  A    between atoms: _109  and  _111
REMARK   47  A    between atoms: _111  and  _112
REMARK   48  A    between atoms: _114  and  _116
REMARK   49  A    between atoms: _116  and  _117
REMARK   50  A    between atoms: _119  and  _121
REMARK   51  A    between atoms: _121  and  _122
REMARK   52  A    between atoms: _121  and  _124
REMARK   53  A    between atoms: _124  and  _125
REMARK   54  A    between atoms: _128  and  _130
REMARK   55  A    between atoms: _130  and  _131
REMARK   56  A    between atoms: _133  and  _135
REMARK   57  A    between atoms: _135  and  _136
REMARK   58  A    between atoms: _138  and  _140
REMARK   59  A    between atoms: _140  and  _141
REMARK   60  A    between atoms: _140  and  _143
REMARK   61  A    between atoms: _143  and  _144
REMARK   62  A    between atoms: _147  and  _149
REMARK   63  A    between atoms: _149  and  _150
REMARK   64  A    between atoms: _149  and  _152
REMARK   65  A    between atoms: _152  and  _153
REMARK   66  A    between atoms: _157  and  _158
REMARK   67  A    between atoms: _163  and  _165
REMARK   68  A    between atoms: _165  and  _166
REMARK   69  A    between atoms: _165  and  _168
REMARK   70  A    between atoms: _168  and  _169
REMARK   71  A    between atoms: _173  and  _174
REMARK   72  A    between atoms: _179  and  _181
REMARK   73  A    between atoms: _181  and  _182
REMARK   74  A    between atoms: _181  and  _184
REMARK   75  A    between atoms: _187  and  _189
REMARK   76  A    between atoms: _189  and  _190
REMARK   77  A    between atoms: _189  and  _192
REMARK   78  A    between atoms: _192  and  _193
REMARK   79  A    between atoms: _198  and  _200
REMARK   80  A    between atoms: _200  and  _201
REMARK   81  A    between atoms: _200  and  _203
REMARK   82  A    between atoms: _203  and  _204
REMARK   83  A    between atoms: _207  and  _209
REMARK   84  A    between atoms: _209  and  _210
REMARK   85  A    between atoms: _209  and  _212
REMARK   86  A    between atoms: _212  and  _213
REMARK   87  A    between atoms: _216  and  _218
REMARK   88  A    between atoms: _218  and  _219
REMARK   89  A    between atoms: _221  and  _223
REMARK   90  A    between atoms: _223  and  _224
REMARK   91  A    between atoms: _223  and  _226
REMARK   92  A    between atoms: _226  and  _227
REMARK   93  A    between atoms: _227  and  _228
REMARK   94  A    between atoms: _228  and  _229
REMARK   95  A    between atoms: _238  and  _240
REMARK   96  A    between atoms: _240  and  _241
REMARK   97  A    between atoms: _240  and  _243
REMARK   98  A    between atoms: _243  and  _244
REMARK   99  A    between atoms: _249  and  _251
REMARK  100  A    between atoms: _251  and  _252
REMARK  101  A    between atoms: _251  and  _254
REMARK  102  A    between atoms: _254  and  _255
REMARK  103  A    between atoms: _255  and  _256
REMARK  104  A    between atoms: _256  and  _257
REMARK  105  A    between atoms: _266  and  _268
REMARK  106  A    between atoms: _268  and  _269
REMARK  107  A    between atoms: _268  and  _271
REMARK  108  A    between atoms: _271  and  _272
REMARK  109  A    between atoms: _275  and  _277
REMARK  110  A    between atoms: _277  and  _278
REMARK  111  A    between atoms: _277  and  _280
REMARK  112  A    between atoms: _280  and  _281
REMARK  113  A    between atoms: _284  and  _286
REMARK  114  A    between atoms: _286  and  _287
REMARK  115  A    between atoms: _286  and  _289
REMARK  116  A    between atoms: _289  and  _290
REMARK  117  A    between atoms: _293  and  _295
REMARK  118  A    between atoms: _295  and  _296
REMARK  119  A    between atoms: _295  and  _298
REMARK  120  A    between atoms: _298  and  _299
REMARK  121  A    between atoms: _302  and  _304
REMARK  122  A    between atoms: _304  and  _305
REMARK  123  A    between atoms: _307  and  _309
REMARK  124  A    between atoms: _309  and  _310
REMARK  125  A    between atoms: _313  and  _315
REMARK  126  A    between atoms: _315  and  _316
REMARK  127  A    between atoms: _315  and  _318
REMARK  128  A    between atoms: _318  and  _319
REMARK  129  A    between atoms: _322  and  _324
REMARK  130  A    between atoms: _324  and  _325
REMARK  131  A    between atoms: _324  and  _327
REMARK  132  A    between atoms: _327  and  _328
REMARK  133  A    between atoms: _331  and  _333
REMARK  134  A    between atoms: _333  and  _334
REMARK  135  A    between atoms: _333  and  _336
REMARK  136  A    between atoms: _336  and  _337
REMARK  137  A    between atoms: _340  and  _342
REMARK  138  A    between atoms: _342  and  _343
REMARK  139  A    between atoms: _342  and  _345
REMARK  140  A    between atoms: _348  and  _350
REMARK  141  A    between atoms: _350  and  _351
REMARK  142  A    between atoms: _350  and  _353
REMARK  143  A    between atoms: _353  and  _354
REMARK  144  A    between atoms: _357  and  _359
REMARK  145  A    between atoms: _359  and  _360
REMARK  146  A    between atoms: _359  and  _362
REMARK  147  A    between atoms: _362  and  _363
REMARK  148  A    between atoms: _363  and  _364
REMARK  149  A    between atoms: _364  and  _365
REMARK  150  A    between atoms: _365  and  _366
REMARK  151  A    between atoms: _370  and  _372
REMARK  152  A    between atoms: _372  and  _373
REMARK  153  A    between atoms: _372  and  _375
REMARK  154  A    between atoms: _375  and  _376
REMARK  155  A    between atoms: _376  and  _377
REMARK  156  A    between atoms: _379  and  _381
REMARK  157  A    between atoms: _381  and  _382
REMARK  158  A    between atoms: _381  and  _384
REMARK  159  A    between atoms: _384  and  _385
REMARK  160  A    between atoms: _388  and  _390
REMARK  161  A    between atoms: _390  and  _391
REMARK  162  A    between atoms: _393  and  _395
REMARK  163  A    between atoms: _395  and  _396
REMARK  164  A    between atoms: _398  and  _400
REMARK  165  A    between atoms: _400  and  _401
REMARK  166  A    between atoms: _400  and  _403
REMARK  167  A    between atoms: _403  and  _404
REMARK  168  A    between atoms: _407  and  _409
REMARK  169  A    between atoms: _409  and  _410
REMARK  170  A    between atoms: _412  and  _414
REMARK  171  A    between atoms: _414  and  _415
REMARK  172  A    between atoms: _417  and  _419
REMARK  173  A    between atoms: _419  and  _420
REMARK  174  A    between atoms: _419  and  _422
REMARK  175  A    between atoms: _422  and  _423
REMARK  176  A    between atoms: _429  and  _431
REMARK  177  A    between atoms: _431  and  _432
REMARK  178  A    between atoms: _431  and  _434
REMARK  179  A    between atoms: _434  and  _435
REMARK  180  A    between atoms: _438  and  _440
REMARK  181  A    between atoms: _440  and  _441
REMARK  182  A    between atoms: _440  and  _443
REMARK  183  A    between atoms: _446  and  _448
REMARK  184  A    between atoms: _448  and  _449
REMARK  185  A    between atoms: _448  and  _451
REMARK  186  A    between atoms: _451  and  _452
REMARK  187  A    between atoms: _455  and  _457
REMARK  188  A    between atoms: _457  and  _458
REMARK  189  A    between atoms: _457  and  _460
REMARK  190  A    between atoms: _460  and  _461
REMARK  191  A    between atoms: _465  and  _466
REMARK  192  A    between atoms: _471  and  _473
REMARK  193  A    between atoms: _473  and  _474
REMARK  194  A    between atoms: _473  and  _476
REMARK  195  A    between atoms: _479  and  _481
REMARK  196  A    between atoms: _481  and  _482
REMARK  197  A    between atoms: _481  and  _484
REMARK  198  A    between atoms: _484  and  _485
REMARK  199  A    between atoms: _490  and  _492
REMARK  200  A    between atoms: _492  and  _493
REMARK  201  A    between atoms: _492  and  _495
REMARK  202  A    between atoms: _495  and  _496
REMARK  203  A    between atoms: _499  and  _501
REMARK  204  A    between atoms: _501  and  _502
REMARK  205  A    between atoms: _501  and  _504
REMARK  206  A    between atoms: _504  and  _505
REMARK  207  A    between atoms: _508  and  _510
REMARK  208  A    between atoms: _510  and  _511
REMARK  209  A    between atoms: _513  and  _515
REMARK  210  A    between atoms: _515  and  _516
REMARK  211  A    between atoms: _515  and  _518
REMARK  212  A    between atoms: _518  and  _519
REMARK  213  A    between atoms: _519  and  _520
REMARK  214  A    between atoms: _520  and  _521
REMARK  215  A    between atoms: _530  and  _532
REMARK  216  A    between atoms: _532  and  _533
REMARK  217  A    between atoms: _532  and  _535
REMARK  218  A    between atoms: _535  and  _536
REMARK                            x       y       z     vdW  Elec       q    Type
REMARK                         _______ _______ _______ _____ _____    ______ ____
ROOT
ATOM      1  O   HOH     1      13.505  37.701  19.433  0.00  0.00    +0.000 OA
ENDROOT
TORSDOF 0
REMARK  Name = ../refined-set-2016/3o9e/3o9e_pocket.pdb
REMARK  218 active torsions:
REMARK  status: ('A' for Active; 'I' for Inactive)
REMARK    1  A    between atoms: _1  and  _3
REMARK    2  A    between atoms: _3  and  _4
REMARK    3  A    between atoms: _3  and  _6
REMARK    4  A    between atoms: _6  and  _7
REMARK    5  A    between atoms: _7  and  _8
REMARK    6  A    between atoms: _8  and  _9
REMARK    7  A    between atoms: _18  and  _20
REMARK    8  A    between atoms: _20  and  _21
REMARK    9  A    between atoms: _20  and  _23
REMARK   10  A    between atoms: _23  and  _24
REMARK   11  A    between atoms: _27  and  _29
REMARK   12  A    between atoms: _29  and  _30
REMARK   13  A    between atoms: _29  and  _32
REMARK   14  A    between atoms: _32  and  _33
REMARK   15  A    between atoms: _36  and  _38
REMARK   16  A    between atoms: _38  and  _39
REMARK   17  A    between atoms: _38  and  _41
REMARK   18  A    between atoms: _41  and  _42
REMARK   19  A    between atoms: _45  and  _47
REMARK   20  A    between atoms: _47  and  _48
REMARK   21  A    between atoms: _47  and  _50
REMARK   22  A    between atoms: _50  and  _51
REMARK   23  A    between atoms: _54  and  _56
REMARK   24  A    between atoms: _56  and  _57
REMARK   25  A    between atoms: _59  and  _61
REMARK   26  A    between atoms: _61  and  _62
REMARK   27  A    between atoms: _65  and  _67
REMARK   28  A    between atoms: _67  and  _68
REMARK   29  A    between atoms: _67  and  _70
REMARK   30  A    between atoms: _70  and  _71
REMARK   31  A    between atoms: _74  and  _76
REMARK   32  A    between atoms: _76  and  _77
REMARK   33  A    between atoms: _76  and  _79
REMARK   34  A    between atoms: _79  and  _80
REMARK   35  A    between atoms: _83  and  _85
REMARK   36  A    between atoms: _85  and  _86
REMARK   37  A    between atoms: _85  and  _88
REMARK   38  A    between atoms: _88  and  _89
REMARK   39  A    between atoms: _92  and  _94
REMARK   40  A    between atoms: _94  and  _95
REMARK   41  A    between atoms: _94  and  _97
REMARK   42  A    between atoms: _100  and  _102
REMARK   43  A    between atoms: _102  and  _103
REMARK   44  A    between atoms: _102  and  _105
REMARK   45  A    between atoms: _105  and  _106
REMARK   46  A    between atoms: _109  and  _111
REMARK   47  A    between atoms: _111  and  _112
REMARK   48  A    between atoms: _114  and  _116
REMARK   49  A    between atoms: _116  and  _117
REMARK   50  A    between atoms: _119  and  _121
REMARK   51  A    between atoms: _121  and  _122
REMARK   52  A    between atoms: _121  and  _124
REMARK   53  A    between atoms: _124  and  _125
REMARK   54  A    between atoms: _128  and  _130
REMARK   55  A    between atoms: _130  and  _131
REMARK   56  A    between atoms: _133  and  _135
REMARK   57  A    between atoms: _135  and  _136
REMARK   58  A    between atoms: _138  and  _140
REMARK   59  A    between atoms: _140  and  _141
REMARK   60  A    between atoms: _140  and  _143
REMARK   61  A    between atoms: _143  and  _144
REMARK   62  A    between atoms: _147  and  _149
REMARK   63  A    between atoms: _149  and  _150
REMARK   64  A    between atoms: _149  and  _152
REMARK   65  A    between atoms: _152  and  _153
REMARK   66  A    between atoms: _157  and  _158
REMARK   67  A    between atoms: _163  and  _165
REMARK   68  A    between atoms: _165  and  _166
REMARK   69  A    between atoms: _165  and  _168
REMARK   70  A    between atoms: _168  and  _169
REMARK   71  A    between atoms: _173  and  _174
REMARK   72  A    between atoms: _179  and  _181
REMARK   73  A    between atoms: _181  and  _182
REMARK   74  A    between atoms: _181  and  _184
REMARK   75  A    between atoms: _187  and  _189
REMARK   76  A    between atoms: _189  and  _190
REMARK   77  A    between atoms: _189  and  _192
REMARK   78  A    between atoms: _192  and  _193
REMARK   79  A    between atoms: _198  and  _200
REMARK   80  A    between atoms: _200  and  _201
REMARK   81  A    between atoms: _200  and  _203
REMARK   82  A    between atoms: _203  and  _204
REMARK   83  A    between atoms: _207  and  _209
REMARK   84  A    between atoms: _209  and  _210
REMARK   85  A    between atoms: _209  and  _212
REMARK   86  A    between atoms: _212  and  _213
REMARK   87  A    between atoms: _216  and  _218
REMARK   88  A    between atoms: _218  and  _219
REMARK   89  A    between atoms: _221  and  _223
REMARK   90  A    between atoms: _223  and  _224
REMARK   91  A    between atoms: _223  and  _226
REMARK   92  A    between atoms: _226  and  _227
REMARK   93  A    between atoms: _227  and  _228
REMARK   94  A    between atoms: _228  and  _229
REMARK   95  A    between atoms: _238  and  _240
REMARK   96  A    between atoms: _240  and  _241
REMARK   97  A    between atoms: _240  and  _243
REMARK   98  A    between atoms: _243  and  _244
REMARK   99  A    between atoms: _249  and  _251
REMARK  100  A    between atoms: _251  and  _252
REMARK  101  A    between atoms: _251  and  _254
REMARK  102  A    between atoms: _254  and  _255
REMARK  103  A    between atoms: _255  and  _256
REMARK  104  A    between atoms: _256  and  _257
REMARK  105  A    between atoms: _266  and  _268
REMARK  106  A    between atoms: _268  and  _269
REMARK  107  A    between atoms: _268  and  _271
REMARK  108  A    between atoms: _271  and  _272
REMARK  109  A    between atoms: _275  and  _277
REMARK  110  A    between atoms: _277  and  _278
REMARK  111  A    between atoms: _277  and  _280
REMARK  112  A    between atoms: _280  and  _281
REMARK  113  A    between atoms: _284  and  _286
REMARK  114  A    between atoms: _286  and  _287
REMARK  115  A    between atoms: _286  and  _289
REMARK  116  A    between atoms: _289  and  _290
REMARK  117  A    between atoms: _293  and  _295
REMARK  118  A    between atoms: _295  and  _296
REMARK  119  A    between atoms: _295  and  _298
REMARK  120  A    between atoms: _298  and  _299
REMARK  121  A    between atoms: _302  and  _304
REMARK  122  A    between atoms: _304  and  _305
REMARK  123  A    between atoms: _307  and  _309
REMARK  124  A    between atoms: _309  and  _310
REMARK  125  A    between atoms: _313  and  _315
REMARK  126  A    between atoms: _315  and  _316
REMARK  127  A    between atoms: _315  and  _318
REMARK  128  A    between atoms: _318  and  _319
REMARK  129  A    between atoms: _322  and  _324
REMARK  130  A    between atoms: _324  and  _325
REMARK  131  A    between atoms: _324  and  _327
REMARK  132  A    between atoms: _327  and  _328
REMARK  133  A    between atoms: _331  and  _333
REMARK  134  A    between atoms: _333  and  _334
REMARK  135  A    between atoms: _333  and  _336
REMARK  136  A    between atoms: _336  and  _337
REMARK  137  A    between atoms: _340  and  _342
REMARK  138  A    between atoms: _342  and  _343
REMARK  139  A    between atoms: _342  and  _345
REMARK  140  A    between atoms: _348  and  _350
REMARK  141  A    between atoms: _350  and  _351
REMARK  142  A    between atoms: _350  and  _353
REMARK  143  A    between atoms: _353  and  _354
REMARK  144  A    between atoms: _357  and  _359
REMARK  145  A    between atoms: _359  and  _360
REMARK  146  A    between atoms: _359  and  _362
REMARK  147  A    between atoms: _362  and  _363
REMARK  148  A    between atoms: _363  and  _364
REMARK  149  A    between atoms: _364  and  _365
REMARK  150  A    between atoms: _365  and  _366
REMARK  151  A    between atoms: _370  and  _372
REMARK  152  A    between atoms: _372  and  _373
REMARK  153  A    between atoms: _372  and  _375
REMARK  154  A    between atoms: _375  and  _376
REMARK  155  A    between atoms: _376  and  _377
REMARK  156  A    between atoms: _379  and  _381
REMARK  157  A    between atoms: _381  and  _382
REMARK  158  A    between atoms: _381  and  _384
REMARK  159  A    between atoms: _384  and  _385
REMARK  160  A    between atoms: _388  and  _390
REMARK  161  A    between atoms: _390  and  _391
REMARK  162  A    between atoms: _393  and  _395
REMARK  163  A    between atoms: _395  and  _396
REMARK  164  A    between atoms: _398  and  _400
REMARK  165  A    between atoms: _400  and  _401
REMARK  166  A    between atoms: _400  and  _403
REMARK  167  A    between atoms: _403  and  _404
REMARK  168  A    between atoms: _407  and  _409
REMARK  169  A    between atoms: _409  and  _410
REMARK  170  A    between atoms: _412  and  _414
REMARK  171  A    between atoms: _414  and  _415
REMARK  172  A    between atoms: _417  and  _419
REMARK  173  A    between atoms: _419  and  _420
REMARK  174  A    between atoms: _419  and  _422
REMARK  175  A    between atoms: _422  and  _423
REMARK  176  A    between atoms: _429  and  _431
REMARK  177  A    between atoms: _431  and  _432
REMARK  178  A    between atoms: _431  and  _434
REMARK  179  A    between atoms: _434  and  _435
REMARK  180  A    between atoms: _438  and  _440
REMARK  181  A    between atoms: _440  and  _441
REMARK  182  A    between atoms: _440  and  _443
REMARK  183  A    between atoms: _446  and  _448
REMARK  184  A    between atoms: _448  and  _449
REMARK  185  A    between atoms: _448  and  _451
REMARK  186  A    between atoms: _451  and  _452
REMARK  187  A    between atoms: _455  and  _457
REMARK  188  A    between atoms: _457  and  _458
REMARK  189  A    between atoms: _457  and  _460
REMARK  190  A    between atoms: _460  and  _461
REMARK  191  A    between atoms: _465  and  _466
REMARK  192  A    between atoms: _471  and  _473
REMARK  193  A    between atoms: _473  and  _474
REMARK  194  A    between atoms: _473  and  _476
REMARK  195  A    between atoms: _479  and  _481
REMARK  196  A    between atoms: _481  and  _482
REMARK  197  A    between atoms: _481  and  _484
REMARK  198  A    between atoms: _484  and  _485
REMARK  199  A    between atoms: _490  and  _492
REMARK  200  A    between atoms: _492  and  _493
REMARK  201  A    between atoms: _492  and  _495
REMARK  202  A    between atoms: _495  and  _496
REMARK  203  A    between atoms: _499  and  _501
REMARK  204  A    between atoms: _501  and  _502
REMARK  205  A    between atoms: _501  and  _504
REMARK  206  A    between atoms: _504  and  _505
REMARK  207  A    between atoms: _508  and  _510
REMARK  208  A    between atoms: _510  and  _511
REMARK  209  A    between atoms: _513  and  _515
REMARK  210  A    between atoms: _515  and  _516
REMARK  211  A    between atoms: _515  and  _518
REMARK  212  A    between atoms: _518  and  _519
REMARK  213  A    between atoms: _519  and  _520
REMARK  214  A    between atoms: _520  and  _521
REMARK  215  A    between atoms: _530  and  _532
REMARK  216  A    between atoms: _532  and  _533
REMARK  217  A    between atoms: _532  and  _535
REMARK  218  A    between atoms: _535  and  _536
REMARK                            x       y       z     vdW  Elec       q    Type
REMARK                         _______ _______ _______ _____ _____    ______ ____
ROOT
ATOM      1  O   HOH     1      17.367  39.930  16.296  0.00  0.00    +0.000 OA
ENDROOT
TORSDOF 0
REMARK  Name = ../refined-set-2016/3o9e/3o9e_pocket.pdb
REMARK  218 active torsions:
REMARK  status: ('A' for Active; 'I' for Inactive)
REMARK    1  A    between atoms: _1  and  _3
REMARK    2  A    between atoms: _3  and  _4
REMARK    3  A    between atoms: _3  and  _6
REMARK    4  A    between atoms: _6  and  _7
REMARK    5  A    between atoms: _7  and  _8
REMARK    6  A    between atoms: _8  and  _9
REMARK    7  A    between atoms: _18  and  _20
REMARK    8  A    between atoms: _20  and  _21
REMARK    9  A    between atoms: _20  and  _23
REMARK   10  A    between atoms: _23  and  _24
REMARK   11  A    between atoms: _27  and  _29
REMARK   12  A    between atoms: _29  and  _30
REMARK   13  A    between atoms: _29  and  _32
REMARK   14  A    between atoms: _32  and  _33
REMARK   15  A    between atoms: _36  and  _38
REMARK   16  A    between atoms: _38  and  _39
REMARK   17  A    between atoms: _38  and  _41
REMARK   18  A    between atoms: _41  and  _42
REMARK   19  A    between atoms: _45  and  _47
REMARK   20  A    between atoms: _47  and  _48
REMARK   21  A    between atoms: _47  and  _50
REMARK   22  A    between atoms: _50  and  _51
REMARK   23  A    between atoms: _54  and  _56
REMARK   24  A    between atoms: _56  and  _57
REMARK   25  A    between atoms: _59  and  _61
REMARK   26  A    between atoms: _61  and  _62
REMARK   27  A    between atoms: _65  and  _67
REMARK   28  A    between atoms: _67  and  _68
REMARK   29  A    between atoms: _67  and  _70
REMARK   30  A    between atoms: _70  and  _71
REMARK   31  A    between atoms: _74  and  _76
REMARK   32  A    between atoms: _76  and  _77
REMARK   33  A    between atoms: _76  and  _79
REMARK   34  A    between atoms: _79  and  _80
REMARK   35  A    between atoms: _83  and  _85
REMARK   36  A    between atoms: _85  and  _86
REMARK   37  A    between atoms: _85  and  _88
REMARK   38  A    between atoms: _88  and  _89
REMARK   39  A    between atoms: _92  and  _94
REMARK   40  A    between atoms: _94  and  _95
REMARK   41  A    between atoms: _94  and  _97
REMARK   42  A    between atoms: _100  and  _102
REMARK   43  A    between atoms: _102  and  _103
REMARK   44  A    between atoms: _102  and  _105
REMARK   45  A    between atoms: _105  and  _106
REMARK   46  A    between atoms: _109  and  _111
REMARK   47  A    between atoms: _111  and  _112
REMARK   48  A    between atoms: _114  and  _116
REMARK   49  A    between atoms: _116  and  _117
REMARK   50  A    between atoms: _119  and  _121
REMARK   51  A    between atoms: _121  and  _122
REMARK   52  A    between atoms: _121  and  _124
REMARK   53  A    between atoms: _124  and  _125
REMARK   54  A    between atoms: _128  and  _130
REMARK   55  A    between atoms: _130  and  _131
REMARK   56  A    between atoms: _133  and  _135
REMARK   57  A    between atoms: _135  and  _136
REMARK   58  A    between atoms: _138  and  _140
REMARK   59  A    between atoms: _140  and  _141
REMARK   60  A    between atoms: _140  and  _143
REMARK   61  A    between atoms: _143  and  _144
REMARK   62  A    between atoms: _147  and  _149
REMARK   63  A    between atoms: _149  and  _150
REMARK   64  A    between atoms: _149  and  _152
REMARK   65  A    between atoms: _152  and  _153
REMARK   66  A    between atoms: _157  and  _158
REMARK   67  A    between atoms: _163  and  _165
REMARK   68  A    between atoms: _165  and  _166
REMARK   69  A    between atoms: _165  and  _168
REMARK   70  A    between atoms: _168  and  _169
REMARK   71  A    between atoms: _173  and  _174
REMARK   72  A    between atoms: _179  and  _181
REMARK   73  A    between atoms: _181  and  _182
REMARK   74  A    between atoms: _181  and  _184
REMARK   75  A    between atoms: _187  and  _189
REMARK   76  A    between atoms: _189  and  _190
REMARK   77  A    between atoms: _189  and  _192
REMARK   78  A    between atoms: _192  and  _193
REMARK   79  A    between atoms: _198  and  _200
REMARK   80  A    between atoms: _200  and  _201
REMARK   81  A    between atoms: _200  and  _203
REMARK   82  A    between atoms: _203  and  _204
REMARK   83  A    between atoms: _207  and  _209
REMARK   84  A    between atoms: _209  and  _210
REMARK   85  A    between atoms: _209  and  _212
REMARK   86  A    between atoms: _212  and  _213
REMARK   87  A    between atoms: _216  and  _218
REMARK   88  A    between atoms: _218  and  _219
REMARK   89  A    between atoms: _221  and  _223
REMARK   90  A    between atoms: _223  and  _224
REMARK   91  A    between atoms: _223  and  _226
REMARK   92  A    between atoms: _226  and  _227
REMARK   93  A    between atoms: _227  and  _228
REMARK   94  A    between atoms: _228  and  _229
REMARK   95  A    between atoms: _238  and  _240
REMARK   96  A    between atoms: _240  and  _241
REMARK   97  A    between atoms: _240  and  _243
REMARK   98  A    between atoms: _243  and  _244
REMARK   99  A    between atoms: _249  and  _251
REMARK  100  A    between atoms: _251  and  _252
REMARK  101  A    between atoms: _251  and  _254
REMARK  102  A    between atoms: _254  and  _255
REMARK  103  A    between atoms: _255  and  _256
REMARK  104  A    between atoms: _256  and  _257
REMARK  105  A    between atoms: _266  and  _268
REMARK  106  A    between atoms: _268  and  _269
REMARK  107  A    between atoms: _268  and  _271
REMARK  108  A    between atoms: _271  and  _272
REMARK  109  A    between atoms: _275  and  _277
REMARK  110  A    between atoms: _277  and  _278
REMARK  111  A    between atoms: _277  and  _280
REMARK  112  A    between atoms: _280  and  _281
REMARK  113  A    between atoms: _284  and  _286
REMARK  114  A    between atoms: _286  and  _287
REMARK  115  A    between atoms: _286  and  _289
REMARK  116  A    between atoms: _289  and  _290
REMARK  117  A    between atoms: _293  and  _295
REMARK  118  A    between atoms: _295  and  _296
REMARK  119  A    between atoms: _295  and  _298
REMARK  120  A    between atoms: _298  and  _299
REMARK  121  A    between atoms: _302  and  _304
REMARK  122  A    between atoms: _304  and  _305
REMARK  123  A    between atoms: _307  and  _309
REMARK  124  A    between atoms: _309  and  _310
REMARK  125  A    between atoms: _313  and  _315
REMARK  126  A    between atoms: _315  and  _316
REMARK  127  A    between atoms: _315  and  _318
REMARK  128  A    between atoms: _318  and  _319
REMARK  129  A    between atoms: _322  and  _324
REMARK  130  A    between atoms: _324  and  _325
REMARK  131  A    between atoms: _324  and  _327
REMARK  132  A    between atoms: _327  and  _328
REMARK  133  A    between atoms: _331  and  _333
REMARK  134  A    between atoms: _333  and  _334
REMARK  135  A    between atoms: _333  and  _336
REMARK  136  A    between atoms: _336  and  _337
REMARK  137  A    between atoms: _340  and  _342
REMARK  138  A    between atoms: _342  and  _343
REMARK  139  A    between atoms: _342  and  _345
REMARK  140  A    between atoms: _348  and  _350
REMARK  141  A    between atoms: _350  and  _351
REMARK  142  A    between atoms: _350  and  _353
REMARK  143  A    between atoms: _353  and  _354
REMARK  144  A    between atoms: _357  and  _359
REMARK  145  A    between atoms: _359  and  _360
REMARK  146  A    between atoms: _359  and  _362
REMARK  147  A    between atoms: _362  and  _363
REMARK  148  A    between atoms: _363  and  _364
REMARK  149  A    between atoms: _364  and  _365
REMARK  150  A    between atoms: _365  and  _366
REMARK  151  A    between atoms: _370  and  _372
REMARK  152  A    between atoms: _372  and  _373
REMARK  153  A    between atoms: _372  and  _375
REMARK  154  A    between atoms: _375  and  _376
REMARK  155  A    between atoms: _376  and  _377
REMARK  156  A    between atoms: _379  and  _381
REMARK  157  A    between atoms: _381  and  _382
REMARK  158  A    between atoms: _381  and  _384
REMARK  159  A    between atoms: _384  and  _385
REMARK  160  A    between atoms: _388  and  _390
REMARK  161  A    between atoms: _390  and  _391
REMARK  162  A    between atoms: _393  and  _395
REMARK  163  A    between atoms: _395  and  _396
REMARK  164  A    between atoms: _398  and  _400
REMARK  165  A    between atoms: _400  and  _401
REMARK  166  A    between atoms: _400  and  _403
REMARK  167  A    between atoms: _403  and  _404
REMARK  168  A    between atoms: _407  and  _409
REMARK  169  A    between atoms: _409  and  _410
REMARK  170  A    between atoms: _412  and  _414
REMARK  171  A    between atoms: _414  and  _415
REMARK  172  A    between atoms: _417  and  _419
REMARK  173  A    between atoms: _419  and  _420
REMARK  174  A    between atoms: _419  and  _422
REMARK  175  A    between atoms: _422  and  _423
REMARK  176  A    between atoms: _429  and  _431
REMARK  177  A    between atoms: _431  and  _432
REMARK  178  A    between atoms: _431  and  _434
REMARK  179  A    between atoms: _434  and  _435
REMARK  180  A    between atoms: _438  and  _440
REMARK  181  A    between atoms: _440  and  _441
REMARK  182  A    between atoms: _440  and  _443
REMARK  183  A    between atoms: _446  and  _448
REMARK  184  A    between atoms: _448  and  _449
REMARK  185  A    between atoms: _448  and  _451
REMARK  186  A    between atoms: _451  and  _452
REMARK  187  A    between atoms: _455  and  _457
REMARK  188  A    between atoms: _457  and  _458
REMARK  189  A    between atoms: _457  and  _460
REMARK  190  A    between atoms: _460  and  _461
REMARK  191  A    between atoms: _465  and  _466
REMARK  192  A    between atoms: _471  and  _473
REMARK  193  A    between atoms: _473  and  _474
REMARK  194  A    between atoms: _473  and  _476
REMARK  195  A    between atoms: _479  and  _481
REMARK  196  A    between atoms: _481  and  _482
REMARK  197  A    between atoms: _481  and  _484
REMARK  198  A    between atoms: _484  and  _485
REMARK  199  A    between atoms: _490  and  _492
REMARK  200  A    between atoms: _492  and  _493
REMARK  201  A    between atoms: _492  and  _495
REMARK  202  A    between atoms: _495  and  _496
REMARK  203  A    between atoms: _499  and  _501
REMARK  204  A    between atoms: _501  and  _502
REMARK  205  A    between atoms: _501  and  _504
REMARK  206  A    between atoms: _504  and  _505
REMARK  207  A    between atoms: _508  and  _510
REMARK  208  A    between atoms: _510  and  _511
REMARK  209  A    between atoms: _513  and  _515
REMARK  210  A    between atoms: _515  and  _516
REMARK  211  A    between atoms: _515  and  _518
REMARK  212  A    between atoms: _518  and  _519
REMARK  213  A    between atoms: _519  and  _520
REMARK  214  A    between atoms: _520  and  _521
REMARK  215  A    between atoms: _530  and  _532
REMARK  216  A    between atoms: _532  and  _533
REMARK  217  A    between atoms: _532  and  _535
REMARK  218  A    between atoms: _535  and  _536
REMARK                            x       y       z     vdW  Elec       q    Type
REMARK                         _______ _______ _______ _____ _____    ______ ____
ROOT
ATOM      1  O   HOH     1      12.293  20.844  10.657  0.00  0.00    +0.000 OA
ENDROOT
TORSDOF 0
REMARK  Name = ../refined-set-2016/3o9e/3o9e_pocket.pdb
REMARK  218 active torsions:
REMARK  status: ('A' for Active; 'I' for Inactive)
REMARK    1  A    between atoms: _1  and  _3
REMARK    2  A    between atoms: _3  and  _4
REMARK    3  A    between atoms: _3  and  _6
REMARK    4  A    between atoms: _6  and  _7
REMARK    5  A    between atoms: _7  and  _8
REMARK    6  A    between atoms: _8  and  _9
REMARK    7  A    between atoms: _18  and  _20
REMARK    8  A    between atoms: _20  and  _21
REMARK    9  A    between atoms: _20  and  _23
REMARK   10  A    between atoms: _23  and  _24
REMARK   11  A    between atoms: _27  and  _29
REMARK   12  A    between atoms: _29  and  _30
REMARK   13  A    between atoms: _29  and  _32
REMARK   14  A    between atoms: _32  and  _33
REMARK   15  A    between atoms: _36  and  _38
REMARK   16  A    between atoms: _38  and  _39
REMARK   17  A    between atoms: _38  and  _41
REMARK   18  A    between atoms: _41  and  _42
REMARK   19  A    between atoms: _45  and  _47
REMARK   20  A    between atoms: _47  and  _48
REMARK   21  A    between atoms: _47  and  _50
REMARK   22  A    between atoms: _50  and  _51
REMARK   23  A    between atoms: _54  and  _56
REMARK   24  A    between atoms: _56  and  _57
REMARK   25  A    between atoms: _59  and  _61
REMARK   26  A    between atoms: _61  and  _62
REMARK   27  A    between atoms: _65  and  _67
REMARK   28  A    between atoms: _67  and  _68
REMARK   29  A    between atoms: _67  and  _70
REMARK   30  A    between atoms: _70  and  _71
REMARK   31  A    between atoms: _74  and  _76
REMARK   32  A    between atoms: _76  and  _77
REMARK   33  A    between atoms: _76  and  _79
REMARK   34  A    between atoms: _79  and  _80
REMARK   35  A    between atoms: _83  and  _85
REMARK   36  A    between atoms: _85  and  _86
REMARK   37  A    between atoms: _85  and  _88
REMARK   38  A    between atoms: _88  and  _89
REMARK   39  A    between atoms: _92  and  _94
REMARK   40  A    between atoms: _94  and  _95
REMARK   41  A    between atoms: _94  and  _97
REMARK   42  A    between atoms: _100  and  _102
REMARK   43  A    between atoms: _102  and  _103
REMARK   44  A    between atoms: _102  and  _105
REMARK   45  A    between atoms: _105  and  _106
REMARK   46  A    between atoms: _109  and  _111
REMARK   47  A    between atoms: _111  and  _112
REMARK   48  A    between atoms: _114  and  _116
REMARK   49  A    between atoms: _116  and  _117
REMARK   50  A    between atoms: _119  and  _121
REMARK   51  A    between atoms: _121  and  _122
REMARK   52  A    between atoms: _121  and  _124
REMARK   53  A    between atoms: _124  and  _125
REMARK   54  A    between atoms: _128  and  _130
REMARK   55  A    between atoms: _130  and  _131
REMARK   56  A    between atoms: _133  and  _135
REMARK   57  A    between atoms: _135  and  _136
REMARK   58  A    between atoms: _138  and  _140
REMARK   59  A    between atoms: _140  and  _141
REMARK   60  A    between atoms: _140  and  _143
REMARK   61  A    between atoms: _143  and  _144
REMARK   62  A    between atoms: _147  and  _149
REMARK   63  A    between atoms: _149  and  _150
REMARK   64  A    between atoms: _149  and  _152
REMARK   65  A    between atoms: _152  and  _153
REMARK   66  A    between atoms: _157  and  _158
REMARK   67  A    between atoms: _163  and  _165
REMARK   68  A    between atoms: _165  and  _166
REMARK   69  A    between atoms: _165  and  _168
REMARK   70  A    between atoms: _168  and  _169
REMARK   71  A    between atoms: _173  and  _174
REMARK   72  A    between atoms: _179  and  _181
REMARK   73  A    between atoms: _181  and  _182
REMARK   74  A    between atoms: _181  and  _184
REMARK   75  A    between atoms: _187  and  _189
REMARK   76  A    between atoms: _189  and  _190
REMARK   77  A    between atoms: _189  and  _192
REMARK   78  A    between atoms: _192  and  _193
REMARK   79  A    between atoms: _198  and  _200
REMARK   80  A    between atoms: _200  and  _201
REMARK   81  A    between atoms: _200  and  _203
REMARK   82  A    between atoms: _203  and  _204
REMARK   83  A    between atoms: _207  and  _209
REMARK   84  A    between atoms: _209  and  _210
REMARK   85  A    between atoms: _209  and  _212
REMARK   86  A    between atoms: _212  and  _213
REMARK   87  A    between atoms: _216  and  _218
REMARK   88  A    between atoms: _218  and  _219
REMARK   89  A    between atoms: _221  and  _223
REMARK   90  A    between atoms: _223  and  _224
REMARK   91  A    between atoms: _223  and  _226
REMARK   92  A    between atoms: _226  and  _227
REMARK   93  A    between atoms: _227  and  _228
REMARK   94  A    between atoms: _228  and  _229
REMARK   95  A    between atoms: _238  and  _240
REMARK   96  A    between atoms: _240  and  _241
REMARK   97  A    between atoms: _240  and  _243
REMARK   98  A    between atoms: _243  and  _244
REMARK   99  A    between atoms: _249  and  _251
REMARK  100  A    between atoms: _251  and  _252
REMARK  101  A    between atoms: _251  and  _254
REMARK  102  A    between atoms: _254  and  _255
REMARK  103  A    between atoms: _255  and  _256
REMARK  104  A    between atoms: _256  and  _257
REMARK  105  A    between atoms: _266  and  _268
REMARK  106  A    between atoms: _268  and  _269
REMARK  107  A    between atoms: _268  and  _271
REMARK  108  A    between atoms: _271  and  _272
REMARK  109  A    between atoms: _275  and  _277
REMARK  110  A    between atoms: _277  and  _278
REMARK  111  A    between atoms: _277  and  _280
REMARK  112  A    between atoms: _280  and  _281
REMARK  113  A    between atoms: _284  and  _286
REMARK  114  A    between atoms: _286  and  _287
REMARK  115  A    between atoms: _286  and  _289
REMARK  116  A    between atoms: _289  and  _290
REMARK  117  A    between atoms: _293  and  _295
REMARK  118  A    between atoms: _295  and  _296
REMARK  119  A    between atoms: _295  and  _298
REMARK  120  A    between atoms: _298  and  _299
REMARK  121  A    between atoms: _302  and  _304
REMARK  122  A    between atoms: _304  and  _305
REMARK  123  A    between atoms: _307  and  _309
REMARK  124  A    between atoms: _309  and  _310
REMARK  125  A    between atoms: _313  and  _315
REMARK  126  A    between atoms: _315  and  _316
REMARK  127  A    between atoms: _315  and  _318
REMARK  128  A    between atoms: _318  and  _319
REMARK  129  A    between atoms: _322  and  _324
REMARK  130  A    between atoms: _324  and  _325
REMARK  131  A    between atoms: _324  and  _327
REMARK  132  A    between atoms: _327  and  _328
REMARK  133  A    between atoms: _331  and  _333
REMARK  134  A    between atoms: _333  and  _334
REMARK  135  A    between atoms: _333  and  _336
REMARK  136  A    between atoms: _336  and  _337
REMARK  137  A    between atoms: _340  and  _342
REMARK  138  A    between atoms: _342  and  _343
REMARK  139  A    between atoms: _342  and  _345
REMARK  140  A    between atoms: _348  and  _350
REMARK  141  A    between atoms: _350  and  _351
REMARK  142  A    between atoms: _350  and  _353
REMARK  143  A    between atoms: _353  and  _354
REMARK  144  A    between atoms: _357  and  _359
REMARK  145  A    between atoms: _359  and  _360
REMARK  146  A    between atoms: _359  and  _362
REMARK  147  A    between atoms: _362  and  _363
REMARK  148  A    between atoms: _363  and  _364
REMARK  149  A    between atoms: _364  and  _365
REMARK  150  A    between atoms: _365  and  _366
REMARK  151  A    between atoms: _370  and  _372
REMARK  152  A    between atoms: _372  and  _373
REMARK  153  A    between atoms: _372  and  _375
REMARK  154  A    between atoms: _375  and  _376
REMARK  155  A    between atoms: _376  and  _377
REMARK  156  A    between atoms: _379  and  _381
REMARK  157  A    between atoms: _381  and  _382
REMARK  158  A    between atoms: _381  and  _384
REMARK  159  A    between atoms: _384  and  _385
REMARK  160  A    between atoms: _388  and  _390
REMARK  161  A    between atoms: _390  and  _391
REMARK  162  A    between atoms: _393  and  _395
REMARK  163  A    between atoms: _395  and  _396
REMARK  164  A    between atoms: _398  and  _400
REMARK  165  A    between atoms: _400  and  _401
REMARK  166  A    between atoms: _400  and  _403
REMARK  167  A    between atoms: _403  and  _404
REMARK  168  A    between atoms: _407  and  _409
REMARK  169  A    between atoms: _409  and  _410
REMARK  170  A    between atoms: _412  and  _414
REMARK  171  A    between atoms: _414  and  _415
REMARK  172  A    between atoms: _417  and  _419
REMARK  173  A    between atoms: _419  and  _420
REMARK  174  A    between atoms: _419  and  _422
REMARK  175  A    between atoms: _422  and  _423
REMARK  176  A    between atoms: _429  and  _431
REMARK  177  A    between atoms: _431  and  _432
REMARK  178  A    between atoms: _431  and  _434
REMARK  179  A    between atoms: _434  and  _435
REMARK  180  A    between atoms: _438  and  _440
REMARK  181  A    between atoms: _440  and  _441
REMARK  182  A    between atoms: _440  and  _443
REMARK  183  A    between atoms: _446  and  _448
REMARK  184  A    between atoms: _448  and  _449
REMARK  185  A    between atoms: _448  and  _451
REMARK  186  A    between atoms: _451  and  _452
REMARK  187  A    between atoms: _455  and  _457
REMARK  188  A    between atoms: _457  and  _458
REMARK  189  A    between atoms: _457  and  _460
REMARK  190  A    between atoms: _460  and  _461
REMARK  191  A    between atoms: _465  and  _466
REMARK  192  A    between atoms: _471  and  _473
REMARK  193  A    between atoms: _473  and  _474
REMARK  194  A    between atoms: _473  and  _476
REMARK  195  A    between atoms: _479  and  _481
REMARK  196  A    between atoms: _481  and  _482
REMARK  197  A    between atoms: _481  and  _484
REMARK  198  A    between atoms: _484  and  _485
REMARK  199  A    between atoms: _490  and  _492
REMARK  200  A    between atoms: _492  and  _493
REMARK  201  A    between atoms: _492  and  _495
REMARK  202  A    between atoms: _495  and  _496
REMARK  203  A    between atoms: _499  and  _501
REMARK  204  A    between atoms: _501  and  _502
REMARK  205  A    between atoms: _501  and  _504
REMARK  206  A    between atoms: _504  and  _505
REMARK  207  A    between atoms: _508  and  _510
REMARK  208  A    between atoms: _510  and  _511
REMARK  209  A    between atoms: _513  and  _515
REMARK  210  A    between atoms: _515  and  _516
REMARK  211  A    between atoms: _515  and  _518
REMARK  212  A    between atoms: _518  and  _519
REMARK  213  A    between atoms: _519  and  _520
REMARK  214  A    between atoms: _520  and  _521
REMARK  215  A    between atoms: _530  and  _532
REMARK  216  A    between atoms: _532  and  _533
REMARK  217  A    between atoms: _532  and  _535
REMARK  218  A    between atoms: _535  and  _536
REMARK                            x       y       z     vdW  Elec       q    Type
REMARK                         _______ _______ _______ _____ _____    ______ ____
ROOT
ATOM      1  O   HOH     1      14.976  20.391  10.615  0.00  0.00    +0.000 OA
ENDROOT
TORSDOF 0
