REMARK  Name = ../refined-set-2016/1b32/1b32_pocket.pdb
REMARK  260 active torsions:
REMARK  status: ('A' for Active; 'I' for Inactive)
REMARK    1  A    between atoms: _1  and  _3
REMARK    2  A    between atoms: _3  and  _4
REMARK    3  A    between atoms: _3  and  _6
REMARK    4  A    between atoms: _6  and  _7
REMARK    5  A    between atoms: _12  and  _14
REMARK    6  A    between atoms: _14  and  _15
REMARK    7  A    between atoms: _14  and  _17
REMARK    8  A    between atoms: _17  and  _18
REMARK    9  A    between atoms: _20  and  _22
REMARK   10  A    between atoms: _22  and  _23
REMARK   11  A    between atoms: _22  and  _25
REMARK   12  A    between atoms: _25  and  _26
REMARK   13  A    between atoms: _26  and  _27
REMARK   14  A    between atoms: _32  and  _34
REMARK   15  A    between atoms: _34  and  _35
REMARK   16  A    between atoms: _34  and  _37
REMARK   17  A    between atoms: _37  and  _38
REMARK   18  A    between atoms: _41  and  _43
REMARK   19  A    between atoms: _43  and  _44
REMARK   20  A    between atoms: _43  and  _46
REMARK   21  A    between atoms: _46  and  _47
REMARK   22  A    between atoms: _47  and  _48
REMARK   23  A    between atoms: _51  and  _53
REMARK   24  A    between atoms: _53  and  _54
REMARK   25  A    between atoms: _56  and  _58
REMARK   26  A    between atoms: _58  and  _59
REMARK   27  A    between atoms: _58  and  _61
REMARK   28  A    between atoms: _65  and  _66
REMARK   29  A    between atoms: _71  and  _73
REMARK   30  A    between atoms: _73  and  _74
REMARK   31  A    between atoms: _73  and  _76
REMARK   32  A    between atoms: _76  and  _77
REMARK   33  A    between atoms: _77  and  _78
REMARK   34  A    between atoms: _81  and  _83
REMARK   35  A    between atoms: _83  and  _84
REMARK   36  A    between atoms: _83  and  _86
REMARK   37  A    between atoms: _86  and  _87
REMARK   38  A    between atoms: _89  and  _91
REMARK   39  A    between atoms: _91  and  _92
REMARK   40  A    between atoms: _91  and  _94
REMARK   41  A    between atoms: _94  and  _95
REMARK   42  A    between atoms: _100  and  _102
REMARK   43  A    between atoms: _102  and  _103
REMARK   44  A    between atoms: _102  and  _105
REMARK   45  A    between atoms: _105  and  _106
REMARK   46  A    between atoms: _106  and  _107
REMARK   47  A    between atoms: _107  and  _108
REMARK   48  A    between atoms: _118  and  _119
REMARK   49  A    between atoms: _124  and  _126
REMARK   50  A    between atoms: _126  and  _127
REMARK   51  A    between atoms: _126  and  _129
REMARK   52  A    between atoms: _129  and  _130
REMARK   53  A    between atoms: _135  and  _136
REMARK   54  A    between atoms: _138  and  _140
REMARK   55  A    between atoms: _140  and  _141
REMARK   56  A    between atoms: _140  and  _143
REMARK   57  A    between atoms: _143  and  _144
REMARK   58  A    between atoms: _149  and  _150
REMARK   59  A    between atoms: _152  and  _154
REMARK   60  A    between atoms: _154  and  _155
REMARK   61  A    between atoms: _154  and  _157
REMARK   62  A    between atoms: _160  and  _162
REMARK   63  A    between atoms: _162  and  _163
REMARK   64  A    between atoms: _162  and  _165
REMARK   65  A    between atoms: _165  and  _166
REMARK   66  A    between atoms: _172  and  _173
REMARK   67  A    between atoms: _178  and  _180
REMARK   68  A    between atoms: _180  and  _181
REMARK   69  A    between atoms: _180  and  _183
REMARK   70  A    between atoms: _183  and  _184
REMARK   71  A    between atoms: _186  and  _188
REMARK   72  A    between atoms: _188  and  _189
REMARK   73  A    between atoms: _188  and  _191
REMARK   74  A    between atoms: _191  and  _192
REMARK   75  A    between atoms: _197  and  _198
REMARK   76  A    between atoms: _200  and  _202
REMARK   77  A    between atoms: _202  and  _203
REMARK   78  A    between atoms: _202  and  _205
REMARK   79  A    between atoms: _205  and  _206
REMARK   80  A    between atoms: _211  and  _213
REMARK   81  A    between atoms: _213  and  _214
REMARK   82  A    between atoms: _213  and  _216
REMARK   83  A    between atoms: _216  and  _217
REMARK   84  A    between atoms: _222  and  _224
REMARK   85  A    between atoms: _224  and  _225
REMARK   86  A    between atoms: _224  and  _227
REMARK   87  A    between atoms: _227  and  _228
REMARK   88  A    between atoms: _228  and  _229
REMARK   89  A    between atoms: _231  and  _233
REMARK   90  A    between atoms: _233  and  _234
REMARK   91  A    between atoms: _233  and  _236
REMARK   92  A    between atoms: _236  and  _237
REMARK   93  A    between atoms: _242  and  _243
REMARK   94  A    between atoms: _245  and  _247
REMARK   95  A    between atoms: _247  and  _248
REMARK   96  A    between atoms: _247  and  _250
REMARK   97  A    between atoms: _250  and  _251
REMARK   98  A    between atoms: _254  and  _256
REMARK   99  A    between atoms: _256  and  _257
REMARK  100  A    between atoms: _256  and  _259
REMARK  101  A    between atoms: _259  and  _260
REMARK  102  A    between atoms: _260  and  _477
REMARK  103  A    between atoms: _261  and  _263
REMARK  104  A    between atoms: _263  and  _264
REMARK  105  A    between atoms: _263  and  _266
REMARK  106  A    between atoms: _266  and  _267
REMARK  107  A    between atoms: _270  and  _272
REMARK  108  A    between atoms: _272  and  _273
REMARK  109  A    between atoms: _272  and  _275
REMARK  110  A    between atoms: _275  and  _276
REMARK  111  A    between atoms: _281  and  _282
REMARK  112  A    between atoms: _284  and  _286
REMARK  113  A    between atoms: _286  and  _287
REMARK  114  A    between atoms: _286  and  _289
REMARK  115  A    between atoms: _289  and  _290
REMARK  116  A    between atoms: _295  and  _296
REMARK  117  A    between atoms: _298  and  _300
REMARK  118  A    between atoms: _300  and  _301
REMARK  119  A    between atoms: _300  and  _303
REMARK  120  A    between atoms: _303  and  _304
REMARK  121  A    between atoms: _304  and  _305
REMARK  122  A    between atoms: _308  and  _310
REMARK  123  A    between atoms: _310  and  _311
REMARK  124  A    between atoms: _310  and  _313
REMARK  125  A    between atoms: _313  and  _314
REMARK  126  A    between atoms: _319  and  _320
REMARK  127  A    between atoms: _322  and  _324
REMARK  128  A    between atoms: _324  and  _325
REMARK  129  A    between atoms: _324  and  _327
REMARK  130  A    between atoms: _327  and  _328
REMARK  131  A    between atoms: _333  and  _335
REMARK  132  A    between atoms: _335  and  _336
REMARK  133  A    between atoms: _335  and  _338
REMARK  134  A    between atoms: _338  and  _339
REMARK  135  A    between atoms: _342  and  _344
REMARK  136  A    between atoms: _344  and  _345
REMARK  137  A    between atoms: _344  and  _347
REMARK  138  A    between atoms: _347  and  _348
REMARK  139  A    between atoms: _353  and  _355
REMARK  140  A    between atoms: _355  and  _356
REMARK  141  A    between atoms: _355  and  _358
REMARK  142  A    between atoms: _358  and  _359
REMARK  143  A    between atoms: _369  and  _371
REMARK  144  A    between atoms: _371  and  _372
REMARK  145  A    between atoms: _371  and  _374
REMARK  146  A    between atoms: _374  and  _375
REMARK  147  A    between atoms: _381  and  _383
REMARK  148  A    between atoms: _383  and  _384
REMARK  149  A    between atoms: _383  and  _386
REMARK  150  A    between atoms: _386  and  _387
REMARK  151  A    between atoms: _390  and  _392
REMARK  152  A    between atoms: _392  and  _393
REMARK  153  A    between atoms: _392  and  _395
REMARK  154  A    between atoms: _395  and  _396
REMARK  155  A    between atoms: _399  and  _401
REMARK  156  A    between atoms: _401  and  _402
REMARK  157  A    between atoms: _401  and  _404
REMARK  158  A    between atoms: _404  and  _405
REMARK  159  A    between atoms: _405  and  _406
REMARK  160  A    between atoms: _406  and  _407
REMARK  161  A    between atoms: _416  and  _418
REMARK  162  A    between atoms: _418  and  _419
REMARK  163  A    between atoms: _418  and  _421
REMARK  164  A    between atoms: _421  and  _422
REMARK  165  A    between atoms: _427  and  _429
REMARK  166  A    between atoms: _429  and  _430
REMARK  167  A    between atoms: _429  and  _432
REMARK  168  A    between atoms: _432  and  _433
REMARK  169  A    between atoms: _433  and  _434
REMARK  170  A    between atoms: _434  and  _435
REMARK  171  A    between atoms: _444  and  _446
REMARK  172  A    between atoms: _446  and  _447
REMARK  173  A    between atoms: _450  and  _452
REMARK  174  A    between atoms: _452  and  _453
REMARK  175  A    between atoms: _455  and  _457
REMARK  176  A    between atoms: _457  and  _458
REMARK  177  A    between atoms: _457  and  _460
REMARK  178  A    between atoms: _460  and  _461
REMARK  179  A    between atoms: _471  and  _473
REMARK  180  A    between atoms: _473  and  _474
REMARK  181  A    between atoms: _473  and  _476
REMARK  182  A    between atoms: _476  and  _477
REMARK  183  A    between atoms: _478  and  _480
REMARK  184  A    between atoms: _480  and  _481
REMARK  185  A    between atoms: _484  and  _486
REMARK  186  A    between atoms: _486  and  _487
REMARK  187  A    between atoms: _486  and  _489
REMARK  188  A    between atoms: _489  and  _490
REMARK  189  A    between atoms: _493  and  _495
REMARK  190  A    between atoms: _495  and  _496
REMARK  191  A    between atoms: _495  and  _498
REMARK  192  A    between atoms: _498  and  _499
REMARK  193  A    between atoms: _504  and  _505
REMARK  194  A    between atoms: _507  and  _509
REMARK  195  A    between atoms: _509  and  _510
REMARK  196  A    between atoms: _509  and  _512
REMARK  197  A    between atoms: _512  and  _513
REMARK  198  A    between atoms: _515  and  _517
REMARK  199  A    between atoms: _517  and  _518
REMARK  200  A    between atoms: _517  and  _520
REMARK  201  A    between atoms: _520  and  _521
REMARK  202  A    between atoms: _527  and  _529
REMARK  203  A    between atoms: _529  and  _530
REMARK  204  A    between atoms: _529  and  _532
REMARK  205  A    between atoms: _532  and  _533
REMARK  206  A    between atoms: _536  and  _538
REMARK  207  A    between atoms: _538  and  _539
REMARK  208  A    between atoms: _538  and  _541
REMARK  209  A    between atoms: _541  and  _542
REMARK  210  A    between atoms: _544  and  _546
REMARK  211  A    between atoms: _546  and  _547
REMARK  212  A    between atoms: _546  and  _549
REMARK  213  A    between atoms: _549  and  _550
REMARK  214  A    between atoms: _555  and  _557
REMARK  215  A    between atoms: _557  and  _558
REMARK  216  A    between atoms: _557  and  _560
REMARK  217  A    between atoms: _560  and  _561
REMARK  218  A    between atoms: _566  and  _568
REMARK  219  A    between atoms: _568  and  _569
REMARK  220  A    between atoms: _568  and  _571
REMARK  221  A    between atoms: _571  and  _572
REMARK  222  A    between atoms: _575  and  _577
REMARK  223  A    between atoms: _577  and  _578
REMARK  224  A    between atoms: _581  and  _583
REMARK  225  A    between atoms: _583  and  _584
REMARK  226  A    between atoms: _583  and  _586
REMARK  227  A    between atoms: _586  and  _587
REMARK  228  A    between atoms: _592  and  _593
REMARK  229  A    between atoms: _595  and  _597
REMARK  230  A    between atoms: _597  and  _598
REMARK  231  A    between atoms: _597  and  _600
REMARK  232  A    between atoms: _600  and  _601
REMARK  233  A    between atoms: _606  and  _607
REMARK  234  A    between atoms: _609  and  _611
REMARK  235  A    between atoms: _611  and  _612
REMARK  236  A    between atoms: _611  and  _614
REMARK  237  A    between atoms: _617  and  _619
REMARK  238  A    between atoms: _619  and  _620
REMARK  239  A    between atoms: _619  and  _622
REMARK  240  A    between atoms: _622  and  _623
REMARK  241  A    between atoms: _628  and  _630
REMARK  242  A    between atoms: _630  and  _631
REMARK  243  A    between atoms: _634  and  _636
REMARK  244  A    between atoms: _636  and  _637
REMARK  245  A    between atoms: _636  and  _639
REMARK  246  A    between atoms: _639  and  _640
REMARK  247  A    between atoms: _640  and  _641
REMARK  248  A    between atoms: _641  and  _642
REMARK  249  A    between atoms: _651  and  _653
REMARK  250  A    between atoms: _653  and  _654
REMARK  251  A    between atoms: _653  and  _656
REMARK  252  A    between atoms: _656  and  _657
REMARK  253  A    between atoms: _660  and  _662
REMARK  254  A    between atoms: _662  and  _663
REMARK  255  A    between atoms: _662  and  _665
REMARK  256  A    between atoms: _665  and  _666
REMARK  257  A    between atoms: _669  and  _671
REMARK  258  A    between atoms: _671  and  _672
REMARK  259  A    between atoms: _671  and  _674
REMARK  260  A    between atoms: _674  and  _675
REMARK                            x       y       z     vdW  Elec       q    Type
REMARK                         _______ _______ _______ _____ _____    ______ ____
ROOT
ATOM      1  CB  ASN A   1      -2.208  23.416   4.438  0.00  0.00    +0.110 C 
ENDROOT
BRANCH   1   2
ATOM      2  CG  ASN A   1      -0.841  22.832   4.795  0.00  0.00    +0.221 C 
ATOM      3  OD1 ASN A   1      -0.743  21.632   5.057  0.00  0.00    -0.275 OA
ATOM      4  ND2 ASN A   1       0.197  23.665   4.761  0.00  0.00    -0.329 N 
ATOM      5 HD21 ASN A   1       1.154  23.312   4.962  0.00  0.00    +0.145 HD
ATOM      6 HD22 ASN A   1       0.051  24.669   4.533  0.00  0.00    +0.145 HD
ENDBRANCH   1   2
BRANCH   1   7
ATOM      7  CA  ASN A   1      -3.339  22.758   5.264  0.00  0.00    +0.142 C 
BRANCH   7   8
ATOM      8  N   ASN A   1      -4.582  22.997   4.518  0.00  0.00    -0.239 NA
ATOM      9  H   ASN A   1      -4.933  23.968   4.391  0.00  0.00    +0.142 HD
ENDBRANCH   7   8
BRANCH   7  10
ATOM     10  C   ASN A   1      -3.365  23.317   6.661  0.00  0.00    +0.225 C 
ATOM     11  O   ASN A   1      -2.336  23.436   7.350  0.00  0.00    -0.287 OA
ENDBRANCH   7  10
ENDBRANCH   1   7
TORSDOF 4
REMARK  Name = ../refined-set-2016/1b32/1b32_pocket.pdb
REMARK  260 active torsions:
REMARK  status: ('A' for Active; 'I' for Inactive)
REMARK    1  A    between atoms: _1  and  _3
REMARK    2  A    between atoms: _3  and  _4
REMARK    3  A    between atoms: _3  and  _6
REMARK    4  A    between atoms: _6  and  _7
REMARK    5  A    between atoms: _12  and  _14
REMARK    6  A    between atoms: _14  and  _15
REMARK    7  A    between atoms: _14  and  _17
REMARK    8  A    between atoms: _17  and  _18
REMARK    9  A    between atoms: _20  and  _22
REMARK   10  A    between atoms: _22  and  _23
REMARK   11  A    between atoms: _22  and  _25
REMARK   12  A    between atoms: _25  and  _26
REMARK   13  A    between atoms: _26  and  _27
REMARK   14  A    between atoms: _32  and  _34
REMARK   15  A    between atoms: _34  and  _35
REMARK   16  A    between atoms: _34  and  _37
REMARK   17  A    between atoms: _37  and  _38
REMARK   18  A    between atoms: _41  and  _43
REMARK   19  A    between atoms: _43  and  _44
REMARK   20  A    between atoms: _43  and  _46
REMARK   21  A    between atoms: _46  and  _47
REMARK   22  A    between atoms: _47  and  _48
REMARK   23  A    between atoms: _51  and  _53
REMARK   24  A    between atoms: _53  and  _54
REMARK   25  A    between atoms: _56  and  _58
REMARK   26  A    between atoms: _58  and  _59
REMARK   27  A    between atoms: _58  and  _61
REMARK   28  A    between atoms: _65  and  _66
REMARK   29  A    between atoms: _71  and  _73
REMARK   30  A    between atoms: _73  and  _74
REMARK   31  A    between atoms: _73  and  _76
REMARK   32  A    between atoms: _76  and  _77
REMARK   33  A    between atoms: _77  and  _78
REMARK   34  A    between atoms: _81  and  _83
REMARK   35  A    between atoms: _83  and  _84
REMARK   36  A    between atoms: _83  and  _86
REMARK   37  A    between atoms: _86  and  _87
REMARK   38  A    between atoms: _89  and  _91
REMARK   39  A    between atoms: _91  and  _92
REMARK   40  A    between atoms: _91  and  _94
REMARK   41  A    between atoms: _94  and  _95
REMARK   42  A    between atoms: _100  and  _102
REMARK   43  A    between atoms: _102  and  _103
REMARK   44  A    between atoms: _102  and  _105
REMARK   45  A    between atoms: _105  and  _106
REMARK   46  A    between atoms: _106  and  _107
REMARK   47  A    between atoms: _107  and  _108
REMARK   48  A    between atoms: _118  and  _119
REMARK   49  A    between atoms: _124  and  _126
REMARK   50  A    between atoms: _126  and  _127
REMARK   51  A    between atoms: _126  and  _129
REMARK   52  A    between atoms: _129  and  _130
REMARK   53  A    between atoms: _135  and  _136
REMARK   54  A    between atoms: _138  and  _140
REMARK   55  A    between atoms: _140  and  _141
REMARK   56  A    between atoms: _140  and  _143
REMARK   57  A    between atoms: _143  and  _144
REMARK   58  A    between atoms: _149  and  _150
REMARK   59  A    between atoms: _152  and  _154
REMARK   60  A    between atoms: _154  and  _155
REMARK   61  A    between atoms: _154  and  _157
REMARK   62  A    between atoms: _160  and  _162
REMARK   63  A    between atoms: _162  and  _163
REMARK   64  A    between atoms: _162  and  _165
REMARK   65  A    between atoms: _165  and  _166
REMARK   66  A    between atoms: _172  and  _173
REMARK   67  A    between atoms: _178  and  _180
REMARK   68  A    between atoms: _180  and  _181
REMARK   69  A    between atoms: _180  and  _183
REMARK   70  A    between atoms: _183  and  _184
REMARK   71  A    between atoms: _186  and  _188
REMARK   72  A    between atoms: _188  and  _189
REMARK   73  A    between atoms: _188  and  _191
REMARK   74  A    between atoms: _191  and  _192
REMARK   75  A    between atoms: _197  and  _198
REMARK   76  A    between atoms: _200  and  _202
REMARK   77  A    between atoms: _202  and  _203
REMARK   78  A    between atoms: _202  and  _205
REMARK   79  A    between atoms: _205  and  _206
REMARK   80  A    between atoms: _211  and  _213
REMARK   81  A    between atoms: _213  and  _214
REMARK   82  A    between atoms: _213  and  _216
REMARK   83  A    between atoms: _216  and  _217
REMARK   84  A    between atoms: _222  and  _224
REMARK   85  A    between atoms: _224  and  _225
REMARK   86  A    between atoms: _224  and  _227
REMARK   87  A    between atoms: _227  and  _228
REMARK   88  A    between atoms: _228  and  _229
REMARK   89  A    between atoms: _231  and  _233
REMARK   90  A    between atoms: _233  and  _234
REMARK   91  A    between atoms: _233  and  _236
REMARK   92  A    between atoms: _236  and  _237
REMARK   93  A    between atoms: _242  and  _243
REMARK   94  A    between atoms: _245  and  _247
REMARK   95  A    between atoms: _247  and  _248
REMARK   96  A    between atoms: _247  and  _250
REMARK   97  A    between atoms: _250  and  _251
REMARK   98  A    between atoms: _254  and  _256
REMARK   99  A    between atoms: _256  and  _257
REMARK  100  A    between atoms: _256  and  _259
REMARK  101  A    between atoms: _259  and  _260
REMARK  102  A    between atoms: _260  and  _477
REMARK  103  A    between atoms: _261  and  _263
REMARK  104  A    between atoms: _263  and  _264
REMARK  105  A    between atoms: _263  and  _266
REMARK  106  A    between atoms: _266  and  _267
REMARK  107  A    between atoms: _270  and  _272
REMARK  108  A    between atoms: _272  and  _273
REMARK  109  A    between atoms: _272  and  _275
REMARK  110  A    between atoms: _275  and  _276
REMARK  111  A    between atoms: _281  and  _282
REMARK  112  A    between atoms: _284  and  _286
REMARK  113  A    between atoms: _286  and  _287
REMARK  114  A    between atoms: _286  and  _289
REMARK  115  A    between atoms: _289  and  _290
REMARK  116  A    between atoms: _295  and  _296
REMARK  117  A    between atoms: _298  and  _300
REMARK  118  A    between atoms: _300  and  _301
REMARK  119  A    between atoms: _300  and  _303
REMARK  120  A    between atoms: _303  and  _304
REMARK  121  A    between atoms: _304  and  _305
REMARK  122  A    between atoms: _308  and  _310
REMARK  123  A    between atoms: _310  and  _311
REMARK  124  A    between atoms: _310  and  _313
REMARK  125  A    between atoms: _313  and  _314
REMARK  126  A    between atoms: _319  and  _320
REMARK  127  A    between atoms: _322  and  _324
REMARK  128  A    between atoms: _324  and  _325
REMARK  129  A    between atoms: _324  and  _327
REMARK  130  A    between atoms: _327  and  _328
REMARK  131  A    between atoms: _333  and  _335
REMARK  132  A    between atoms: _335  and  _336
REMARK  133  A    between atoms: _335  and  _338
REMARK  134  A    between atoms: _338  and  _339
REMARK  135  A    between atoms: _342  and  _344
REMARK  136  A    between atoms: _344  and  _345
REMARK  137  A    between atoms: _344  and  _347
REMARK  138  A    between atoms: _347  and  _348
REMARK  139  A    between atoms: _353  and  _355
REMARK  140  A    between atoms: _355  and  _356
REMARK  141  A    between atoms: _355  and  _358
REMARK  142  A    between atoms: _358  and  _359
REMARK  143  A    between atoms: _369  and  _371
REMARK  144  A    between atoms: _371  and  _372
REMARK  145  A    between atoms: _371  and  _374
REMARK  146  A    between atoms: _374  and  _375
REMARK  147  A    between atoms: _381  and  _383
REMARK  148  A    between atoms: _383  and  _384
REMARK  149  A    between atoms: _383  and  _386
REMARK  150  A    between atoms: _386  and  _387
REMARK  151  A    between atoms: _390  and  _392
REMARK  152  A    between atoms: _392  and  _393
REMARK  153  A    between atoms: _392  and  _395
REMARK  154  A    between atoms: _395  and  _396
REMARK  155  A    between atoms: _399  and  _401
REMARK  156  A    between atoms: _401  and  _402
REMARK  157  A    between atoms: _401  and  _404
REMARK  158  A    between atoms: _404  and  _405
REMARK  159  A    between atoms: _405  and  _406
REMARK  160  A    between atoms: _406  and  _407
REMARK  161  A    between atoms: _416  and  _418
REMARK  162  A    between atoms: _418  and  _419
REMARK  163  A    between atoms: _418  and  _421
REMARK  164  A    between atoms: _421  and  _422
REMARK  165  A    between atoms: _427  and  _429
REMARK  166  A    between atoms: _429  and  _430
REMARK  167  A    between atoms: _429  and  _432
REMARK  168  A    between atoms: _432  and  _433
REMARK  169  A    between atoms: _433  and  _434
REMARK  170  A    between atoms: _434  and  _435
REMARK  171  A    between atoms: _444  and  _446
REMARK  172  A    between atoms: _446  and  _447
REMARK  173  A    between atoms: _450  and  _452
REMARK  174  A    between atoms: _452  and  _453
REMARK  175  A    between atoms: _455  and  _457
REMARK  176  A    between atoms: _457  and  _458
REMARK  177  A    between atoms: _457  and  _460
REMARK  178  A    between atoms: _460  and  _461
REMARK  179  A    between atoms: _471  and  _473
REMARK  180  A    between atoms: _473  and  _474
REMARK  181  A    between atoms: _473  and  _476
REMARK  182  A    between atoms: _476  and  _477
REMARK  183  A    between atoms: _478  and  _480
REMARK  184  A    between atoms: _480  and  _481
REMARK  185  A    between atoms: _484  and  _486
REMARK  186  A    between atoms: _486  and  _487
REMARK  187  A    between atoms: _486  and  _489
REMARK  188  A    between atoms: _489  and  _490
REMARK  189  A    between atoms: _493  and  _495
REMARK  190  A    between atoms: _495  and  _496
REMARK  191  A    between atoms: _495  and  _498
REMARK  192  A    between atoms: _498  and  _499
REMARK  193  A    between atoms: _504  and  _505
REMARK  194  A    between atoms: _507  and  _509
REMARK  195  A    between atoms: _509  and  _510
REMARK  196  A    between atoms: _509  and  _512
REMARK  197  A    between atoms: _512  and  _513
REMARK  198  A    between atoms: _515  and  _517
REMARK  199  A    between atoms: _517  and  _518
REMARK  200  A    between atoms: _517  and  _520
REMARK  201  A    between atoms: _520  and  _521
REMARK  202  A    between atoms: _527  and  _529
REMARK  203  A    between atoms: _529  and  _530
REMARK  204  A    between atoms: _529  and  _532
REMARK  205  A    between atoms: _532  and  _533
REMARK  206  A    between atoms: _536  and  _538
REMARK  207  A    between atoms: _538  and  _539
REMARK  208  A    between atoms: _538  and  _541
REMARK  209  A    between atoms: _541  and  _542
REMARK  210  A    between atoms: _544  and  _546
REMARK  211  A    between atoms: _546  and  _547
REMARK  212  A    between atoms: _546  and  _549
REMARK  213  A    between atoms: _549  and  _550
REMARK  214  A    between atoms: _555  and  _557
REMARK  215  A    between atoms: _557  and  _558
REMARK  216  A    between atoms: _557  and  _560
REMARK  217  A    between atoms: _560  and  _561
REMARK  218  A    between atoms: _566  and  _568
REMARK  219  A    between atoms: _568  and  _569
REMARK  220  A    between atoms: _568  and  _571
REMARK  221  A    between atoms: _571  and  _572
REMARK  222  A    between atoms: _575  and  _577
REMARK  223  A    between atoms: _577  and  _578
REMARK  224  A    between atoms: _581  and  _583
REMARK  225  A    between atoms: _583  and  _584
REMARK  226  A    between atoms: _583  and  _586
REMARK  227  A    between atoms: _586  and  _587
REMARK  228  A    between atoms: _592  and  _593
REMARK  229  A    between atoms: _595  and  _597
REMARK  230  A    between atoms: _597  and  _598
REMARK  231  A    between atoms: _597  and  _600
REMARK  232  A    between atoms: _600  and  _601
REMARK  233  A    between atoms: _606  and  _607
REMARK  234  A    between atoms: _609  and  _611
REMARK  235  A    between atoms: _611  and  _612
REMARK  236  A    between atoms: _611  and  _614
REMARK  237  A    between atoms: _617  and  _619
REMARK  238  A    between atoms: _619  and  _620
REMARK  239  A    between atoms: _619  and  _622
REMARK  240  A    between atoms: _622  and  _623
REMARK  241  A    between atoms: _628  and  _630
REMARK  242  A    between atoms: _630  and  _631
REMARK  243  A    between atoms: _634  and  _636
REMARK  244  A    between atoms: _636  and  _637
REMARK  245  A    between atoms: _636  and  _639
REMARK  246  A    between atoms: _639  and  _640
REMARK  247  A    between atoms: _640  and  _641
REMARK  248  A    between atoms: _641  and  _642
REMARK  249  A    between atoms: _651  and  _653
REMARK  250  A    between atoms: _653  and  _654
REMARK  251  A    between atoms: _653  and  _656
REMARK  252  A    between atoms: _656  and  _657
REMARK  253  A    between atoms: _660  and  _662
REMARK  254  A    between atoms: _662  and  _663
REMARK  255  A    between atoms: _662  and  _665
REMARK  256  A    between atoms: _665  and  _666
REMARK  257  A    between atoms: _669  and  _671
REMARK  258  A    between atoms: _671  and  _672
REMARK  259  A    between atoms: _671  and  _674
REMARK  260  A    between atoms: _674  and  _675
REMARK                            x       y       z     vdW  Elec       q    Type
REMARK                         _______ _______ _______ _____ _____    ______ ____
ROOT
ATOM      1  CA  SER A   1      -2.900  27.361   8.758  0.00  0.00    +0.163 C 
ENDROOT
BRANCH   1   2
ATOM      2  N   SER A   1      -3.337  26.047   8.403  0.00  0.00    -0.237 NA
ATOM      3  H   SER A   1      -2.806  25.542   7.666  0.00  0.00    +0.142 HD
ENDBRANCH   1   2
BRANCH   1   4
ATOM      4  C   SER A   1      -1.842  27.857   7.767  0.00  0.00    +0.227 C 
ATOM      5  O   SER A   1      -1.347  27.075   6.952  0.00  0.00    -0.287 OA
ENDBRANCH   1   4
BRANCH   1   6
ATOM      6  CB  SER A   1      -2.297  27.390  10.176  0.00  0.00    +0.162 C 
BRANCH   6   7
ATOM      7  OG  SER A   1      -1.271  26.407  10.245  0.00  0.00    -0.380 OA
ATOM      8  H   SER A   1      -0.872  26.412  11.151  0.00  0.00    +0.211 HD
ENDBRANCH   6   7
ENDBRANCH   1   6
TORSDOF 4
REMARK  Name = ../refined-set-2016/1b32/1b32_pocket.pdb
REMARK  260 active torsions:
REMARK  status: ('A' for Active; 'I' for Inactive)
REMARK    1  A    between atoms: _1  and  _3
REMARK    2  A    between atoms: _3  and  _4
REMARK    3  A    between atoms: _3  and  _6
REMARK    4  A    between atoms: _6  and  _7
REMARK    5  A    between atoms: _12  and  _14
REMARK    6  A    between atoms: _14  and  _15
REMARK    7  A    between atoms: _14  and  _17
REMARK    8  A    between atoms: _17  and  _18
REMARK    9  A    between atoms: _20  and  _22
REMARK   10  A    between atoms: _22  and  _23
REMARK   11  A    between atoms: _22  and  _25
REMARK   12  A    between atoms: _25  and  _26
REMARK   13  A    between atoms: _26  and  _27
REMARK   14  A    between atoms: _32  and  _34
REMARK   15  A    between atoms: _34  and  _35
REMARK   16  A    between atoms: _34  and  _37
REMARK   17  A    between atoms: _37  and  _38
REMARK   18  A    between atoms: _41  and  _43
REMARK   19  A    between atoms: _43  and  _44
REMARK   20  A    between atoms: _43  and  _46
REMARK   21  A    between atoms: _46  and  _47
REMARK   22  A    between atoms: _47  and  _48
REMARK   23  A    between atoms: _51  and  _53
REMARK   24  A    between atoms: _53  and  _54
REMARK   25  A    between atoms: _56  and  _58
REMARK   26  A    between atoms: _58  and  _59
REMARK   27  A    between atoms: _58  and  _61
REMARK   28  A    between atoms: _65  and  _66
REMARK   29  A    between atoms: _71  and  _73
REMARK   30  A    between atoms: _73  and  _74
REMARK   31  A    between atoms: _73  and  _76
REMARK   32  A    between atoms: _76  and  _77
REMARK   33  A    between atoms: _77  and  _78
REMARK   34  A    between atoms: _81  and  _83
REMARK   35  A    between atoms: _83  and  _84
REMARK   36  A    between atoms: _83  and  _86
REMARK   37  A    between atoms: _86  and  _87
REMARK   38  A    between atoms: _89  and  _91
REMARK   39  A    between atoms: _91  and  _92
REMARK   40  A    between atoms: _91  and  _94
REMARK   41  A    between atoms: _94  and  _95
REMARK   42  A    between atoms: _100  and  _102
REMARK   43  A    between atoms: _102  and  _103
REMARK   44  A    between atoms: _102  and  _105
REMARK   45  A    between atoms: _105  and  _106
REMARK   46  A    between atoms: _106  and  _107
REMARK   47  A    between atoms: _107  and  _108
REMARK   48  A    between atoms: _118  and  _119
REMARK   49  A    between atoms: _124  and  _126
REMARK   50  A    between atoms: _126  and  _127
REMARK   51  A    between atoms: _126  and  _129
REMARK   52  A    between atoms: _129  and  _130
REMARK   53  A    between atoms: _135  and  _136
REMARK   54  A    between atoms: _138  and  _140
REMARK   55  A    between atoms: _140  and  _141
REMARK   56  A    between atoms: _140  and  _143
REMARK   57  A    between atoms: _143  and  _144
REMARK   58  A    between atoms: _149  and  _150
REMARK   59  A    between atoms: _152  and  _154
REMARK   60  A    between atoms: _154  and  _155
REMARK   61  A    between atoms: _154  and  _157
REMARK   62  A    between atoms: _160  and  _162
REMARK   63  A    between atoms: _162  and  _163
REMARK   64  A    between atoms: _162  and  _165
REMARK   65  A    between atoms: _165  and  _166
REMARK   66  A    between atoms: _172  and  _173
REMARK   67  A    between atoms: _178  and  _180
REMARK   68  A    between atoms: _180  and  _181
REMARK   69  A    between atoms: _180  and  _183
REMARK   70  A    between atoms: _183  and  _184
REMARK   71  A    between atoms: _186  and  _188
REMARK   72  A    between atoms: _188  and  _189
REMARK   73  A    between atoms: _188  and  _191
REMARK   74  A    between atoms: _191  and  _192
REMARK   75  A    between atoms: _197  and  _198
REMARK   76  A    between atoms: _200  and  _202
REMARK   77  A    between atoms: _202  and  _203
REMARK   78  A    between atoms: _202  and  _205
REMARK   79  A    between atoms: _205  and  _206
REMARK   80  A    between atoms: _211  and  _213
REMARK   81  A    between atoms: _213  and  _214
REMARK   82  A    between atoms: _213  and  _216
REMARK   83  A    between atoms: _216  and  _217
REMARK   84  A    between atoms: _222  and  _224
REMARK   85  A    between atoms: _224  and  _225
REMARK   86  A    between atoms: _224  and  _227
REMARK   87  A    between atoms: _227  and  _228
REMARK   88  A    between atoms: _228  and  _229
REMARK   89  A    between atoms: _231  and  _233
REMARK   90  A    between atoms: _233  and  _234
REMARK   91  A    between atoms: _233  and  _236
REMARK   92  A    between atoms: _236  and  _237
REMARK   93  A    between atoms: _242  and  _243
REMARK   94  A    between atoms: _245  and  _247
REMARK   95  A    between atoms: _247  and  _248
REMARK   96  A    between atoms: _247  and  _250
REMARK   97  A    between atoms: _250  and  _251
REMARK   98  A    between atoms: _254  and  _256
REMARK   99  A    between atoms: _256  and  _257
REMARK  100  A    between atoms: _256  and  _259
REMARK  101  A    between atoms: _259  and  _260
REMARK  102  A    between atoms: _260  and  _477
REMARK  103  A    between atoms: _261  and  _263
REMARK  104  A    between atoms: _263  and  _264
REMARK  105  A    between atoms: _263  and  _266
REMARK  106  A    between atoms: _266  and  _267
REMARK  107  A    between atoms: _270  and  _272
REMARK  108  A    between atoms: _272  and  _273
REMARK  109  A    between atoms: _272  and  _275
REMARK  110  A    between atoms: _275  and  _276
REMARK  111  A    between atoms: _281  and  _282
REMARK  112  A    between atoms: _284  and  _286
REMARK  113  A    between atoms: _286  and  _287
REMARK  114  A    between atoms: _286  and  _289
REMARK  115  A    between atoms: _289  and  _290
REMARK  116  A    between atoms: _295  and  _296
REMARK  117  A    between atoms: _298  and  _300
REMARK  118  A    between atoms: _300  and  _301
REMARK  119  A    between atoms: _300  and  _303
REMARK  120  A    between atoms: _303  and  _304
REMARK  121  A    between atoms: _304  and  _305
REMARK  122  A    between atoms: _308  and  _310
REMARK  123  A    between atoms: _310  and  _311
REMARK  124  A    between atoms: _310  and  _313
REMARK  125  A    between atoms: _313  and  _314
REMARK  126  A    between atoms: _319  and  _320
REMARK  127  A    between atoms: _322  and  _324
REMARK  128  A    between atoms: _324  and  _325
REMARK  129  A    between atoms: _324  and  _327
REMARK  130  A    between atoms: _327  and  _328
REMARK  131  A    between atoms: _333  and  _335
REMARK  132  A    between atoms: _335  and  _336
REMARK  133  A    between atoms: _335  and  _338
REMARK  134  A    between atoms: _338  and  _339
REMARK  135  A    between atoms: _342  and  _344
REMARK  136  A    between atoms: _344  and  _345
REMARK  137  A    between atoms: _344  and  _347
REMARK  138  A    between atoms: _347  and  _348
REMARK  139  A    between atoms: _353  and  _355
REMARK  140  A    between atoms: _355  and  _356
REMARK  141  A    between atoms: _355  and  _358
REMARK  142  A    between atoms: _358  and  _359
REMARK  143  A    between atoms: _369  and  _371
REMARK  144  A    between atoms: _371  and  _372
REMARK  145  A    between atoms: _371  and  _374
REMARK  146  A    between atoms: _374  and  _375
REMARK  147  A    between atoms: _381  and  _383
REMARK  148  A    between atoms: _383  and  _384
REMARK  149  A    between atoms: _383  and  _386
REMARK  150  A    between atoms: _386  and  _387
REMARK  151  A    between atoms: _390  and  _392
REMARK  152  A    between atoms: _392  and  _393
REMARK  153  A    between atoms: _392  and  _395
REMARK  154  A    between atoms: _395  and  _396
REMARK  155  A    between atoms: _399  and  _401
REMARK  156  A    between atoms: _401  and  _402
REMARK  157  A    between atoms: _401  and  _404
REMARK  158  A    between atoms: _404  and  _405
REMARK  159  A    between atoms: _405  and  _406
REMARK  160  A    between atoms: _406  and  _407
REMARK  161  A    between atoms: _416  and  _418
REMARK  162  A    between atoms: _418  and  _419
REMARK  163  A    between atoms: _418  and  _421
REMARK  164  A    between atoms: _421  and  _422
REMARK  165  A    between atoms: _427  and  _429
REMARK  166  A    between atoms: _429  and  _430
REMARK  167  A    between atoms: _429  and  _432
REMARK  168  A    between atoms: _432  and  _433
REMARK  169  A    between atoms: _433  and  _434
REMARK  170  A    between atoms: _434  and  _435
REMARK  171  A    between atoms: _444  and  _446
REMARK  172  A    between atoms: _446  and  _447
REMARK  173  A    between atoms: _450  and  _452
REMARK  174  A    between atoms: _452  and  _453
REMARK  175  A    between atoms: _455  and  _457
REMARK  176  A    between atoms: _457  and  _458
REMARK  177  A    between atoms: _457  and  _460
REMARK  178  A    between atoms: _460  and  _461
REMARK  179  A    between atoms: _471  and  _473
REMARK  180  A    between atoms: _473  and  _474
REMARK  181  A    between atoms: _473  and  _476
REMARK  182  A    between atoms: _476  and  _477
REMARK  183  A    between atoms: _478  and  _480
REMARK  184  A    between atoms: _480  and  _481
REMARK  185  A    between atoms: _484  and  _486
REMARK  186  A    between atoms: _486  and  _487
REMARK  187  A    between atoms: _486  and  _489
REMARK  188  A    between atoms: _489  and  _490
REMARK  189  A    between atoms: _493  and  _495
REMARK  190  A    between atoms: _495  and  _496
REMARK  191  A    between atoms: _495  and  _498
REMARK  192  A    between atoms: _498  and  _499
REMARK  193  A    between atoms: _504  and  _505
REMARK  194  A    between atoms: _507  and  _509
REMARK  195  A    between atoms: _509  and  _510
REMARK  196  A    between atoms: _509  and  _512
REMARK  197  A    between atoms: _512  and  _513
REMARK  198  A    between atoms: _515  and  _517
REMARK  199  A    between atoms: _517  and  _518
REMARK  200  A    between atoms: _517  and  _520
REMARK  201  A    between atoms: _520  and  _521
REMARK  202  A    between atoms: _527  and  _529
REMARK  203  A    between atoms: _529  and  _530
REMARK  204  A    between atoms: _529  and  _532
REMARK  205  A    between atoms: _532  and  _533
REMARK  206  A    between atoms: _536  and  _538
REMARK  207  A    between atoms: _538  and  _539
REMARK  208  A    between atoms: _538  and  _541
REMARK  209  A    between atoms: _541  and  _542
REMARK  210  A    between atoms: _544  and  _546
REMARK  211  A    between atoms: _546  and  _547
REMARK  212  A    between atoms: _546  and  _549
REMARK  213  A    between atoms: _549  and  _550
REMARK  214  A    between atoms: _555  and  _557
REMARK  215  A    between atoms: _557  and  _558
REMARK  216  A    between atoms: _557  and  _560
REMARK  217  A    between atoms: _560  and  _561
REMARK  218  A    between atoms: _566  and  _568
REMARK  219  A    between atoms: _568  and  _569
REMARK  220  A    between atoms: _568  and  _571
REMARK  221  A    between atoms: _571  and  _572
REMARK  222  A    between atoms: _575  and  _577
REMARK  223  A    between atoms: _577  and  _578
REMARK  224  A    between atoms: _581  and  _583
REMARK  225  A    between atoms: _583  and  _584
REMARK  226  A    between atoms: _583  and  _586
REMARK  227  A    between atoms: _586  and  _587
REMARK  228  A    between atoms: _592  and  _593
REMARK  229  A    between atoms: _595  and  _597
REMARK  230  A    between atoms: _597  and  _598
REMARK  231  A    between atoms: _597  and  _600
REMARK  232  A    between atoms: _600  and  _601
REMARK  233  A    between atoms: _606  and  _607
REMARK  234  A    between atoms: _609  and  _611
REMARK  235  A    between atoms: _611  and  _612
REMARK  236  A    between atoms: _611  and  _614
REMARK  237  A    between atoms: _617  and  _619
REMARK  238  A    between atoms: _619  and  _620
REMARK  239  A    between atoms: _619  and  _622
REMARK  240  A    between atoms: _622  and  _623
REMARK  241  A    between atoms: _628  and  _630
REMARK  242  A    between atoms: _630  and  _631
REMARK  243  A    between atoms: _634  and  _636
REMARK  244  A    between atoms: _636  and  _637
REMARK  245  A    between atoms: _636  and  _639
REMARK  246  A    between atoms: _639  and  _640
REMARK  247  A    between atoms: _640  and  _641
REMARK  248  A    between atoms: _641  and  _642
REMARK  249  A    between atoms: _651  and  _653
REMARK  250  A    between atoms: _653  and  _654
REMARK  251  A    between atoms: _653  and  _656
REMARK  252  A    between atoms: _656  and  _657
REMARK  253  A    between atoms: _660  and  _662
REMARK  254  A    between atoms: _662  and  _663
REMARK  255  A    between atoms: _662  and  _665
REMARK  256  A    between atoms: _665  and  _666
REMARK  257  A    between atoms: _669  and  _671
REMARK  258  A    between atoms: _671  and  _672
REMARK  259  A    between atoms: _671  and  _674
REMARK  260  A    between atoms: _674  and  _675
REMARK                            x       y       z     vdW  Elec       q    Type
REMARK                         _______ _______ _______ _____ _____    ______ ____
ROOT
ATOM      1  CB  GLN A   1       6.581  28.516  10.404  0.00  0.00    +0.035 C 
ENDROOT
BRANCH   1   2
ATOM      2  CA  GLN A   1       5.716  29.345   9.456  0.00  0.00    +0.134 C 
BRANCH   2   3
ATOM      3  N   GLN A   1       4.696  28.530   8.794  0.00  0.00    -0.239 NA
ATOM      4  H   GLN A   1       4.634  27.516   9.019  0.00  0.00    +0.142 HD
ENDBRANCH   2   3
BRANCH   2   5
ATOM      5  C   GLN A   1       6.695  29.891   8.401  0.00  0.00    +0.224 C 
ATOM      6  O   GLN A   1       7.147  31.047   8.459  0.00  0.00    -0.287 OA
ENDBRANCH   2   5
ENDBRANCH   1   2
BRANCH   1   7
ATOM      7  CG  GLN A   1       5.978  28.127  11.748  0.00  0.00    +0.087 C 
BRANCH   7   8
ATOM      8  CD  GLN A   1       6.857  27.113  12.467  0.00  0.00    +0.219 C 
ATOM      9  NE2 GLN A   1       7.385  27.484  13.631  0.00  0.00    -0.329 N 
ATOM     10 HE21 GLN A   1       7.988  26.824  14.162  0.00  0.00    +0.145 HD
ATOM     11 HE22 GLN A   1       7.194  28.434  14.009  0.00  0.00    +0.145 HD
ATOM     12  OE1 GLN A   1       7.021  26.008  11.929  0.00  0.00    -0.275 OA
ENDBRANCH   7   8
ENDBRANCH   1   7
TORSDOF 5
REMARK  Name = ../refined-set-2016/1b32/1b32_pocket.pdb
REMARK  260 active torsions:
REMARK  status: ('A' for Active; 'I' for Inactive)
REMARK    1  A    between atoms: _1  and  _3
REMARK    2  A    between atoms: _3  and  _4
REMARK    3  A    between atoms: _3  and  _6
REMARK    4  A    between atoms: _6  and  _7
REMARK    5  A    between atoms: _12  and  _14
REMARK    6  A    between atoms: _14  and  _15
REMARK    7  A    between atoms: _14  and  _17
REMARK    8  A    between atoms: _17  and  _18
REMARK    9  A    between atoms: _20  and  _22
REMARK   10  A    between atoms: _22  and  _23
REMARK   11  A    between atoms: _22  and  _25
REMARK   12  A    between atoms: _25  and  _26
REMARK   13  A    between atoms: _26  and  _27
REMARK   14  A    between atoms: _32  and  _34
REMARK   15  A    between atoms: _34  and  _35
REMARK   16  A    between atoms: _34  and  _37
REMARK   17  A    between atoms: _37  and  _38
REMARK   18  A    between atoms: _41  and  _43
REMARK   19  A    between atoms: _43  and  _44
REMARK   20  A    between atoms: _43  and  _46
REMARK   21  A    between atoms: _46  and  _47
REMARK   22  A    between atoms: _47  and  _48
REMARK   23  A    between atoms: _51  and  _53
REMARK   24  A    between atoms: _53  and  _54
REMARK   25  A    between atoms: _56  and  _58
REMARK   26  A    between atoms: _58  and  _59
REMARK   27  A    between atoms: _58  and  _61
REMARK   28  A    between atoms: _65  and  _66
REMARK   29  A    between atoms: _71  and  _73
REMARK   30  A    between atoms: _73  and  _74
REMARK   31  A    between atoms: _73  and  _76
REMARK   32  A    between atoms: _76  and  _77
REMARK   33  A    between atoms: _77  and  _78
REMARK   34  A    between atoms: _81  and  _83
REMARK   35  A    between atoms: _83  and  _84
REMARK   36  A    between atoms: _83  and  _86
REMARK   37  A    between atoms: _86  and  _87
REMARK   38  A    between atoms: _89  and  _91
REMARK   39  A    between atoms: _91  and  _92
REMARK   40  A    between atoms: _91  and  _94
REMARK   41  A    between atoms: _94  and  _95
REMARK   42  A    between atoms: _100  and  _102
REMARK   43  A    between atoms: _102  and  _103
REMARK   44  A    between atoms: _102  and  _105
REMARK   45  A    between atoms: _105  and  _106
REMARK   46  A    between atoms: _106  and  _107
REMARK   47  A    between atoms: _107  and  _108
REMARK   48  A    between atoms: _118  and  _119
REMARK   49  A    between atoms: _124  and  _126
REMARK   50  A    between atoms: _126  and  _127
REMARK   51  A    between atoms: _126  and  _129
REMARK   52  A    between atoms: _129  and  _130
REMARK   53  A    between atoms: _135  and  _136
REMARK   54  A    between atoms: _138  and  _140
REMARK   55  A    between atoms: _140  and  _141
REMARK   56  A    between atoms: _140  and  _143
REMARK   57  A    between atoms: _143  and  _144
REMARK   58  A    between atoms: _149  and  _150
REMARK   59  A    between atoms: _152  and  _154
REMARK   60  A    between atoms: _154  and  _155
REMARK   61  A    between atoms: _154  and  _157
REMARK   62  A    between atoms: _160  and  _162
REMARK   63  A    between atoms: _162  and  _163
REMARK   64  A    between atoms: _162  and  _165
REMARK   65  A    between atoms: _165  and  _166
REMARK   66  A    between atoms: _172  and  _173
REMARK   67  A    between atoms: _178  and  _180
REMARK   68  A    between atoms: _180  and  _181
REMARK   69  A    between atoms: _180  and  _183
REMARK   70  A    between atoms: _183  and  _184
REMARK   71  A    between atoms: _186  and  _188
REMARK   72  A    between atoms: _188  and  _189
REMARK   73  A    between atoms: _188  and  _191
REMARK   74  A    between atoms: _191  and  _192
REMARK   75  A    between atoms: _197  and  _198
REMARK   76  A    between atoms: _200  and  _202
REMARK   77  A    between atoms: _202  and  _203
REMARK   78  A    between atoms: _202  and  _205
REMARK   79  A    between atoms: _205  and  _206
REMARK   80  A    between atoms: _211  and  _213
REMARK   81  A    between atoms: _213  and  _214
REMARK   82  A    between atoms: _213  and  _216
REMARK   83  A    between atoms: _216  and  _217
REMARK   84  A    between atoms: _222  and  _224
REMARK   85  A    between atoms: _224  and  _225
REMARK   86  A    between atoms: _224  and  _227
REMARK   87  A    between atoms: _227  and  _228
REMARK   88  A    between atoms: _228  and  _229
REMARK   89  A    between atoms: _231  and  _233
REMARK   90  A    between atoms: _233  and  _234
REMARK   91  A    between atoms: _233  and  _236
REMARK   92  A    between atoms: _236  and  _237
REMARK   93  A    between atoms: _242  and  _243
REMARK   94  A    between atoms: _245  and  _247
REMARK   95  A    between atoms: _247  and  _248
REMARK   96  A    between atoms: _247  and  _250
REMARK   97  A    between atoms: _250  and  _251
REMARK   98  A    between atoms: _254  and  _256
REMARK   99  A    between atoms: _256  and  _257
REMARK  100  A    between atoms: _256  and  _259
REMARK  101  A    between atoms: _259  and  _260
REMARK  102  A    between atoms: _260  and  _477
REMARK  103  A    between atoms: _261  and  _263
REMARK  104  A    between atoms: _263  and  _264
REMARK  105  A    between atoms: _263  and  _266
REMARK  106  A    between atoms: _266  and  _267
REMARK  107  A    between atoms: _270  and  _272
REMARK  108  A    between atoms: _272  and  _273
REMARK  109  A    between atoms: _272  and  _275
REMARK  110  A    between atoms: _275  and  _276
REMARK  111  A    between atoms: _281  and  _282
REMARK  112  A    between atoms: _284  and  _286
REMARK  113  A    between atoms: _286  and  _287
REMARK  114  A    between atoms: _286  and  _289
REMARK  115  A    between atoms: _289  and  _290
REMARK  116  A    between atoms: _295  and  _296
REMARK  117  A    between atoms: _298  and  _300
REMARK  118  A    between atoms: _300  and  _301
REMARK  119  A    between atoms: _300  and  _303
REMARK  120  A    between atoms: _303  and  _304
REMARK  121  A    between atoms: _304  and  _305
REMARK  122  A    between atoms: _308  and  _310
REMARK  123  A    between atoms: _310  and  _311
REMARK  124  A    between atoms: _310  and  _313
REMARK  125  A    between atoms: _313  and  _314
REMARK  126  A    between atoms: _319  and  _320
REMARK  127  A    between atoms: _322  and  _324
REMARK  128  A    between atoms: _324  and  _325
REMARK  129  A    between atoms: _324  and  _327
REMARK  130  A    between atoms: _327  and  _328
REMARK  131  A    between atoms: _333  and  _335
REMARK  132  A    between atoms: _335  and  _336
REMARK  133  A    between atoms: _335  and  _338
REMARK  134  A    between atoms: _338  and  _339
REMARK  135  A    between atoms: _342  and  _344
REMARK  136  A    between atoms: _344  and  _345
REMARK  137  A    between atoms: _344  and  _347
REMARK  138  A    between atoms: _347  and  _348
REMARK  139  A    between atoms: _353  and  _355
REMARK  140  A    between atoms: _355  and  _356
REMARK  141  A    between atoms: _355  and  _358
REMARK  142  A    between atoms: _358  and  _359
REMARK  143  A    between atoms: _369  and  _371
REMARK  144  A    between atoms: _371  and  _372
REMARK  145  A    between atoms: _371  and  _374
REMARK  146  A    between atoms: _374  and  _375
REMARK  147  A    between atoms: _381  and  _383
REMARK  148  A    between atoms: _383  and  _384
REMARK  149  A    between atoms: _383  and  _386
REMARK  150  A    between atoms: _386  and  _387
REMARK  151  A    between atoms: _390  and  _392
REMARK  152  A    between atoms: _392  and  _393
REMARK  153  A    between atoms: _392  and  _395
REMARK  154  A    between atoms: _395  and  _396
REMARK  155  A    between atoms: _399  and  _401
REMARK  156  A    between atoms: _401  and  _402
REMARK  157  A    between atoms: _401  and  _404
REMARK  158  A    between atoms: _404  and  _405
REMARK  159  A    between atoms: _405  and  _406
REMARK  160  A    between atoms: _406  and  _407
REMARK  161  A    between atoms: _416  and  _418
REMARK  162  A    between atoms: _418  and  _419
REMARK  163  A    between atoms: _418  and  _421
REMARK  164  A    between atoms: _421  and  _422
REMARK  165  A    between atoms: _427  and  _429
REMARK  166  A    between atoms: _429  and  _430
REMARK  167  A    between atoms: _429  and  _432
REMARK  168  A    between atoms: _432  and  _433
REMARK  169  A    between atoms: _433  and  _434
REMARK  170  A    between atoms: _434  and  _435
REMARK  171  A    between atoms: _444  and  _446
REMARK  172  A    between atoms: _446  and  _447
REMARK  173  A    between atoms: _450  and  _452
REMARK  174  A    between atoms: _452  and  _453
REMARK  175  A    between atoms: _455  and  _457
REMARK  176  A    between atoms: _457  and  _458
REMARK  177  A    between atoms: _457  and  _460
REMARK  178  A    between atoms: _460  and  _461
REMARK  179  A    between atoms: _471  and  _473
REMARK  180  A    between atoms: _473  and  _474
REMARK  181  A    between atoms: _473  and  _476
REMARK  182  A    between atoms: _476  and  _477
REMARK  183  A    between atoms: _478  and  _480
REMARK  184  A    between atoms: _480  and  _481
REMARK  185  A    between atoms: _484  and  _486
REMARK  186  A    between atoms: _486  and  _487
REMARK  187  A    between atoms: _486  and  _489
REMARK  188  A    between atoms: _489  and  _490
REMARK  189  A    between atoms: _493  and  _495
REMARK  190  A    between atoms: _495  and  _496
REMARK  191  A    between atoms: _495  and  _498
REMARK  192  A    between atoms: _498  and  _499
REMARK  193  A    between atoms: _504  and  _505
REMARK  194  A    between atoms: _507  and  _509
REMARK  195  A    between atoms: _509  and  _510
REMARK  196  A    between atoms: _509  and  _512
REMARK  197  A    between atoms: _512  and  _513
REMARK  198  A    between atoms: _515  and  _517
REMARK  199  A    between atoms: _517  and  _518
REMARK  200  A    between atoms: _517  and  _520
REMARK  201  A    between atoms: _520  and  _521
REMARK  202  A    between atoms: _527  and  _529
REMARK  203  A    between atoms: _529  and  _530
REMARK  204  A    between atoms: _529  and  _532
REMARK  205  A    between atoms: _532  and  _533
REMARK  206  A    between atoms: _536  and  _538
REMARK  207  A    between atoms: _538  and  _539
REMARK  208  A    between atoms: _538  and  _541
REMARK  209  A    between atoms: _541  and  _542
REMARK  210  A    between atoms: _544  and  _546
REMARK  211  A    between atoms: _546  and  _547
REMARK  212  A    between atoms: _546  and  _549
REMARK  213  A    between atoms: _549  and  _550
REMARK  214  A    between atoms: _555  and  _557
REMARK  215  A    between atoms: _557  and  _558
REMARK  216  A    between atoms: _557  and  _560
REMARK  217  A    between atoms: _560  and  _561
REMARK  218  A    between atoms: _566  and  _568
REMARK  219  A    between atoms: _568  and  _569
REMARK  220  A    between atoms: _568  and  _571
REMARK  221  A    between atoms: _571  and  _572
REMARK  222  A    between atoms: _575  and  _577
REMARK  223  A    between atoms: _577  and  _578
REMARK  224  A    between atoms: _581  and  _583
REMARK  225  A    between atoms: _583  and  _584
REMARK  226  A    between atoms: _583  and  _586
REMARK  227  A    between atoms: _586  and  _587
REMARK  228  A    between atoms: _592  and  _593
REMARK  229  A    between atoms: _595  and  _597
REMARK  230  A    between atoms: _597  and  _598
REMARK  231  A    between atoms: _597  and  _600
REMARK  232  A    between atoms: _600  and  _601
REMARK  233  A    between atoms: _606  and  _607
REMARK  234  A    between atoms: _609  and  _611
REMARK  235  A    between atoms: _611  and  _612
REMARK  236  A    between atoms: _611  and  _614
REMARK  237  A    between atoms: _617  and  _619
REMARK  238  A    between atoms: _619  and  _620
REMARK  239  A    between atoms: _619  and  _622
REMARK  240  A    between atoms: _622  and  _623
REMARK  241  A    between atoms: _628  and  _630
REMARK  242  A    between atoms: _630  and  _631
REMARK  243  A    between atoms: _634  and  _636
REMARK  244  A    between atoms: _636  and  _637
REMARK  245  A    between atoms: _636  and  _639
REMARK  246  A    between atoms: _639  and  _640
REMARK  247  A    between atoms: _640  and  _641
REMARK  248  A    between atoms: _641  and  _642
REMARK  249  A    between atoms: _651  and  _653
REMARK  250  A    between atoms: _653  and  _654
REMARK  251  A    between atoms: _653  and  _656
REMARK  252  A    between atoms: _656  and  _657
REMARK  253  A    between atoms: _660  and  _662
REMARK  254  A    between atoms: _662  and  _663
REMARK  255  A    between atoms: _662  and  _665
REMARK  256  A    between atoms: _665  and  _666
REMARK  257  A    between atoms: _669  and  _671
REMARK  258  A    between atoms: _671  and  _672
REMARK  259  A    between atoms: _671  and  _674
REMARK  260  A    between atoms: _674  and  _675
REMARK                            x       y       z     vdW  Elec       q    Type
REMARK                         _______ _______ _______ _____ _____    ______ ____
ROOT
ATOM      1  C   VAL A   4       2.211  20.335   9.069  0.00  0.00    +0.244 C 
ATOM      2  N   PRO A   5       1.579  21.514   9.143  0.00  0.00    -0.272 N 
ATOM      3  CD  PRO A   5       1.053  22.182  10.337  0.00  0.00    +0.094 C 
ATOM      4  CG  PRO A   5       0.039  23.142   9.727  0.00  0.00    +0.024 C 
ATOM      5  CB  PRO A   5       0.726  23.587   8.454  0.00  0.00    +0.031 C 
ATOM      6  CA  PRO A   5       1.302  22.266   7.927  0.00  0.00    +0.152 C 
ATOM      7  O   VAL A   4       2.513  19.838   7.966  0.00  0.00    -0.273 OA
ENDROOT
BRANCH   6   8
ATOM      8  C   PRO A   5       2.563  22.577   7.132  0.00  0.00    +0.241 C 
ATOM      9  N   GLU A   6       3.613  22.931   7.886  0.00  0.00    -0.297 N 
ATOM     10  H   GLU A   6       3.530  22.973   8.922  0.00  0.00    +0.150 HD
ATOM     11  O   PRO A   5       2.650  22.438   5.914  0.00  0.00    -0.273 OA
BRANCH   9  12
ATOM     12  CA  GLU A   6       4.882  23.258   7.224  0.00  0.00    +0.149 C 
BRANCH  12  13
ATOM     13  C   GLU A   6       5.427  22.022   6.525  0.00  0.00    +0.241 C 
ATOM     14  N   SER A   7       5.383  20.904   7.234  0.00  0.00    -0.295 N 
ATOM     15  H   SER A   7       4.924  20.915   8.167  0.00  0.00    +0.150 HD
ATOM     16  O   GLU A   6       5.906  22.075   5.378  0.00  0.00    -0.273 OA
BRANCH  14  17
ATOM     17  CA  SER A   7       5.965  19.647   6.739  0.00  0.00    +0.178 C 
BRANCH  17  18
ATOM     18  C   SER A   7       5.202  19.127   5.557  0.00  0.00    +0.243 C 
ATOM     19  N   ASN A   8       3.880  19.352   5.543  0.00  0.00    -0.298 N 
ATOM     20  H   ASN A   8       3.435  19.836   6.349  0.00  0.00    +0.150 HD
ATOM     21  O   SER A   7       5.729  18.501   4.641  0.00  0.00    -0.273 OA
BRANCH  19  22
ATOM     22  CA  ASN A   8       3.057  18.930   4.417  0.00  0.00    +0.146 C 
BRANCH  22  23
ATOM     23  C   ASN A   8       3.565  19.550   3.124  0.00  0.00    +0.227 C 
ATOM     24  O   ASN A   8       3.619  18.855   2.095  0.00  0.00    -0.286 OA
ENDBRANCH  22  23
BRANCH  22  25
ATOM     25  CB  ASN A   8       1.603  19.388   4.656  0.00  0.00    +0.112 C 
BRANCH  25  26
ATOM     26  CG  ASN A   8       0.878  18.519   5.661  0.00  0.00    +0.222 C 
ATOM     27  ND2 ASN A   8      -0.262  19.048   6.129  0.00  0.00    -0.329 N 
ATOM     28 HD21 ASN A   8      -0.853  18.507   6.792  0.00  0.00    +0.145 HD
ATOM     29 HD22 ASN A   8      -0.555  20.000   5.829  0.00  0.00    +0.145 HD
ATOM     30  OD1 ASN A   8       1.252  17.401   5.994  0.00  0.00    -0.275 OA
ENDBRANCH  25  26
ENDBRANCH  22  25
ENDBRANCH  19  22
ENDBRANCH  17  18
BRANCH  17  31
ATOM     31  CB  SER A   7       6.050  18.623   7.877  0.00  0.00    +0.166 C 
BRANCH  31  32
ATOM     32  OG  SER A   7       6.966  19.148   8.848  0.00  0.00    -0.380 OA
ATOM     33  H   SER A   7       6.628  20.016   9.183  0.00  0.00    +0.211 HD
ENDBRANCH  31  32
ENDBRANCH  17  31
ENDBRANCH  14  17
ENDBRANCH  12  13
BRANCH  12  34
ATOM     34  CB  GLU A   6       5.896  23.755   8.277  0.00  0.00    +0.041 C 
BRANCH  34  35
ATOM     35  CG  GLU A   6       5.634  25.116   8.863  0.00  0.00    +0.116 C 
BRANCH  35  36
ATOM     36  CD  GLU A   6       4.436  25.119   9.809  0.00  0.00    +0.365 C 
ATOM     37  OE2 GLU A   6       4.131  24.042  10.360  0.00  0.00    -0.246 OA
ATOM     38  OE1 GLU A   6       3.806  26.149  10.039  0.00  0.00    -0.246 OA
ENDBRANCH  35  36
ENDBRANCH  34  35
ENDBRANCH  12  34
ENDBRANCH   9  12
ENDBRANCH   6   8
BRANCH   1  39
ATOM     39  CA  VAL A   4       2.535  19.554  10.315  0.00  0.00    +0.149 C 
BRANCH  39  41
ATOM     40  C   GLY A   3       4.376  20.960  11.140  0.00  0.00    +0.243 C 
ATOM     41  N   VAL A   4       3.210  20.375  11.326  0.00  0.00    -0.297 N 
ATOM     42  H   VAL A   4       2.740  20.503  12.245  0.00  0.00    +0.150 HD
ATOM     43  O   GLY A   3       5.011  20.833  10.096  0.00  0.00    -0.273 OA
BRANCH  40  44
ATOM     44  CA  GLY A   3       4.830  21.802  12.328  0.00  0.00    +0.176 C 
BRANCH  44  47
ATOM     45  C   GLU A   2       7.137  21.893  13.033  0.00  0.00    +0.241 C 
ATOM     46  O   GLU A   2       6.947  20.981  13.848  0.00  0.00    -0.273 OA
ATOM     47  N   GLY A   3       6.188  22.352  12.200  0.00  0.00    -0.295 N 
ATOM     48  H   GLY A   3       6.407  23.075  11.485  0.00  0.00    +0.150 HD
BRANCH  45  49
ATOM     49  CA  GLU A   2       8.498  22.550  13.003  0.00  0.00    +0.149 C 
BRANCH  49  51
ATOM     50  C   ILE A   1       9.811  23.827  11.461  0.00  0.00    +0.238 C 
ATOM     51  N   GLU A   2       8.597  23.667  12.049  0.00  0.00    -0.297 N 
ATOM     52  H   GLU A   2       7.792  24.291  11.839  0.00  0.00    +0.150 HD
ATOM     53  O   ILE A   1      10.814  23.145  11.702  0.00  0.00    -0.274 OA
BRANCH  50  54
ATOM     54  CA  ILE A   1       9.882  24.908  10.390  0.00  0.00    +0.145 C 
BRANCH  54  55
ATOM     55  CB  ILE A   1       9.302  24.339   9.085  0.00  0.00    +0.025 C 
ATOM     56  CG2 ILE A   1       9.217  25.474   8.040  0.00  0.00    +0.002 C 
BRANCH  55  57
ATOM     57  CG1 ILE A   1      10.145  23.155   8.589  0.00  0.00    +0.002 C 
ATOM     58  CD1 ILE A   1       9.493  22.455   7.391  0.00  0.00    +0.000 C 
ENDBRANCH  55  57
ENDBRANCH  54  55
BRANCH  54  59
ATOM     59  N   ILE A   1      11.275  25.372  10.166  0.00  0.00    -0.238 NA
ATOM     60  H   ILE A   1      12.009  24.730   9.804  0.00  0.00    +0.142 HD
ENDBRANCH  54  59
ENDBRANCH  50  54
ENDBRANCH  49  51
BRANCH  49  61
ATOM     61  CB  GLU A   2       8.825  23.094  14.414  0.00  0.00    +0.041 C 
BRANCH  61  62
ATOM     62  CG  GLU A   2       7.826  24.136  14.866  0.00  0.00    +0.116 C 
BRANCH  62  63
ATOM     63  CD  GLU A   2       8.317  24.995  16.005  0.00  0.00    +0.365 C 
ATOM     64  OE2 GLU A   2       8.375  24.462  17.128  0.00  0.00    -0.246 OA
ATOM     65  OE1 GLU A   2       8.665  26.169  15.755  0.00  0.00    -0.246 OA
ENDBRANCH  62  63
ENDBRANCH  61  62
ENDBRANCH  49  61
ENDBRANCH  45  49
ENDBRANCH  44  47
ENDBRANCH  40  44
ENDBRANCH  39  41
BRANCH  39  66
ATOM     66  CB  VAL A   4       1.292  18.853  10.901  0.00  0.00    +0.027 C 
ATOM     67  CG2 VAL A   4       1.756  17.847  11.976  0.00  0.00    +0.002 C 
ATOM     68  CG1 VAL A   4       0.519  18.074   9.841  0.00  0.00    +0.002 C 
ENDBRANCH  39  66
ENDBRANCH   1  39
TORSDOF 28
REMARK  Name = ../refined-set-2016/1b32/1b32_pocket.pdb
REMARK  260 active torsions:
REMARK  status: ('A' for Active; 'I' for Inactive)
REMARK    1  A    between atoms: _1  and  _3
REMARK    2  A    between atoms: _3  and  _4
REMARK    3  A    between atoms: _3  and  _6
REMARK    4  A    between atoms: _6  and  _7
REMARK    5  A    between atoms: _12  and  _14
REMARK    6  A    between atoms: _14  and  _15
REMARK    7  A    between atoms: _14  and  _17
REMARK    8  A    between atoms: _17  and  _18
REMARK    9  A    between atoms: _20  and  _22
REMARK   10  A    between atoms: _22  and  _23
REMARK   11  A    between atoms: _22  and  _25
REMARK   12  A    between atoms: _25  and  _26
REMARK   13  A    between atoms: _26  and  _27
REMARK   14  A    between atoms: _32  and  _34
REMARK   15  A    between atoms: _34  and  _35
REMARK   16  A    between atoms: _34  and  _37
REMARK   17  A    between atoms: _37  and  _38
REMARK   18  A    between atoms: _41  and  _43
REMARK   19  A    between atoms: _43  and  _44
REMARK   20  A    between atoms: _43  and  _46
REMARK   21  A    between atoms: _46  and  _47
REMARK   22  A    between atoms: _47  and  _48
REMARK   23  A    between atoms: _51  and  _53
REMARK   24  A    between atoms: _53  and  _54
REMARK   25  A    between atoms: _56  and  _58
REMARK   26  A    between atoms: _58  and  _59
REMARK   27  A    between atoms: _58  and  _61
REMARK   28  A    between atoms: _65  and  _66
REMARK   29  A    between atoms: _71  and  _73
REMARK   30  A    between atoms: _73  and  _74
REMARK   31  A    between atoms: _73  and  _76
REMARK   32  A    between atoms: _76  and  _77
REMARK   33  A    between atoms: _77  and  _78
REMARK   34  A    between atoms: _81  and  _83
REMARK   35  A    between atoms: _83  and  _84
REMARK   36  A    between atoms: _83  and  _86
REMARK   37  A    between atoms: _86  and  _87
REMARK   38  A    between atoms: _89  and  _91
REMARK   39  A    between atoms: _91  and  _92
REMARK   40  A    between atoms: _91  and  _94
REMARK   41  A    between atoms: _94  and  _95
REMARK   42  A    between atoms: _100  and  _102
REMARK   43  A    between atoms: _102  and  _103
REMARK   44  A    between atoms: _102  and  _105
REMARK   45  A    between atoms: _105  and  _106
REMARK   46  A    between atoms: _106  and  _107
REMARK   47  A    between atoms: _107  and  _108
REMARK   48  A    between atoms: _118  and  _119
REMARK   49  A    between atoms: _124  and  _126
REMARK   50  A    between atoms: _126  and  _127
REMARK   51  A    between atoms: _126  and  _129
REMARK   52  A    between atoms: _129  and  _130
REMARK   53  A    between atoms: _135  and  _136
REMARK   54  A    between atoms: _138  and  _140
REMARK   55  A    between atoms: _140  and  _141
REMARK   56  A    between atoms: _140  and  _143
REMARK   57  A    between atoms: _143  and  _144
REMARK   58  A    between atoms: _149  and  _150
REMARK   59  A    between atoms: _152  and  _154
REMARK   60  A    between atoms: _154  and  _155
REMARK   61  A    between atoms: _154  and  _157
REMARK   62  A    between atoms: _160  and  _162
REMARK   63  A    between atoms: _162  and  _163
REMARK   64  A    between atoms: _162  and  _165
REMARK   65  A    between atoms: _165  and  _166
REMARK   66  A    between atoms: _172  and  _173
REMARK   67  A    between atoms: _178  and  _180
REMARK   68  A    between atoms: _180  and  _181
REMARK   69  A    between atoms: _180  and  _183
REMARK   70  A    between atoms: _183  and  _184
REMARK   71  A    between atoms: _186  and  _188
REMARK   72  A    between atoms: _188  and  _189
REMARK   73  A    between atoms: _188  and  _191
REMARK   74  A    between atoms: _191  and  _192
REMARK   75  A    between atoms: _197  and  _198
REMARK   76  A    between atoms: _200  and  _202
REMARK   77  A    between atoms: _202  and  _203
REMARK   78  A    between atoms: _202  and  _205
REMARK   79  A    between atoms: _205  and  _206
REMARK   80  A    between atoms: _211  and  _213
REMARK   81  A    between atoms: _213  and  _214
REMARK   82  A    between atoms: _213  and  _216
REMARK   83  A    between atoms: _216  and  _217
REMARK   84  A    between atoms: _222  and  _224
REMARK   85  A    between atoms: _224  and  _225
REMARK   86  A    between atoms: _224  and  _227
REMARK   87  A    between atoms: _227  and  _228
REMARK   88  A    between atoms: _228  and  _229
REMARK   89  A    between atoms: _231  and  _233
REMARK   90  A    between atoms: _233  and  _234
REMARK   91  A    between atoms: _233  and  _236
REMARK   92  A    between atoms: _236  and  _237
REMARK   93  A    between atoms: _242  and  _243
REMARK   94  A    between atoms: _245  and  _247
REMARK   95  A    between atoms: _247  and  _248
REMARK   96  A    between atoms: _247  and  _250
REMARK   97  A    between atoms: _250  and  _251
REMARK   98  A    between atoms: _254  and  _256
REMARK   99  A    between atoms: _256  and  _257
REMARK  100  A    between atoms: _256  and  _259
REMARK  101  A    between atoms: _259  and  _260
REMARK  102  A    between atoms: _260  and  _477
REMARK  103  A    between atoms: _261  and  _263
REMARK  104  A    between atoms: _263  and  _264
REMARK  105  A    between atoms: _263  and  _266
REMARK  106  A    between atoms: _266  and  _267
REMARK  107  A    between atoms: _270  and  _272
REMARK  108  A    between atoms: _272  and  _273
REMARK  109  A    between atoms: _272  and  _275
REMARK  110  A    between atoms: _275  and  _276
REMARK  111  A    between atoms: _281  and  _282
REMARK  112  A    between atoms: _284  and  _286
REMARK  113  A    between atoms: _286  and  _287
REMARK  114  A    between atoms: _286  and  _289
REMARK  115  A    between atoms: _289  and  _290
REMARK  116  A    between atoms: _295  and  _296
REMARK  117  A    between atoms: _298  and  _300
REMARK  118  A    between atoms: _300  and  _301
REMARK  119  A    between atoms: _300  and  _303
REMARK  120  A    between atoms: _303  and  _304
REMARK  121  A    between atoms: _304  and  _305
REMARK  122  A    between atoms: _308  and  _310
REMARK  123  A    between atoms: _310  and  _311
REMARK  124  A    between atoms: _310  and  _313
REMARK  125  A    between atoms: _313  and  _314
REMARK  126  A    between atoms: _319  and  _320
REMARK  127  A    between atoms: _322  and  _324
REMARK  128  A    between atoms: _324  and  _325
REMARK  129  A    between atoms: _324  and  _327
REMARK  130  A    between atoms: _327  and  _328
REMARK  131  A    between atoms: _333  and  _335
REMARK  132  A    between atoms: _335  and  _336
REMARK  133  A    between atoms: _335  and  _338
REMARK  134  A    between atoms: _338  and  _339
REMARK  135  A    between atoms: _342  and  _344
REMARK  136  A    between atoms: _344  and  _345
REMARK  137  A    between atoms: _344  and  _347
REMARK  138  A    between atoms: _347  and  _348
REMARK  139  A    between atoms: _353  and  _355
REMARK  140  A    between atoms: _355  and  _356
REMARK  141  A    between atoms: _355  and  _358
REMARK  142  A    between atoms: _358  and  _359
REMARK  143  A    between atoms: _369  and  _371
REMARK  144  A    between atoms: _371  and  _372
REMARK  145  A    between atoms: _371  and  _374
REMARK  146  A    between atoms: _374  and  _375
REMARK  147  A    between atoms: _381  and  _383
REMARK  148  A    between atoms: _383  and  _384
REMARK  149  A    between atoms: _383  and  _386
REMARK  150  A    between atoms: _386  and  _387
REMARK  151  A    between atoms: _390  and  _392
REMARK  152  A    between atoms: _392  and  _393
REMARK  153  A    between atoms: _392  and  _395
REMARK  154  A    between atoms: _395  and  _396
REMARK  155  A    between atoms: _399  and  _401
REMARK  156  A    between atoms: _401  and  _402
REMARK  157  A    between atoms: _401  and  _404
REMARK  158  A    between atoms: _404  and  _405
REMARK  159  A    between atoms: _405  and  _406
REMARK  160  A    between atoms: _406  and  _407
REMARK  161  A    between atoms: _416  and  _418
REMARK  162  A    between atoms: _418  and  _419
REMARK  163  A    between atoms: _418  and  _421
REMARK  164  A    between atoms: _421  and  _422
REMARK  165  A    between atoms: _427  and  _429
REMARK  166  A    between atoms: _429  and  _430
REMARK  167  A    between atoms: _429  and  _432
REMARK  168  A    between atoms: _432  and  _433
REMARK  169  A    between atoms: _433  and  _434
REMARK  170  A    between atoms: _434  and  _435
REMARK  171  A    between atoms: _444  and  _446
REMARK  172  A    between atoms: _446  and  _447
REMARK  173  A    between atoms: _450  and  _452
REMARK  174  A    between atoms: _452  and  _453
REMARK  175  A    between atoms: _455  and  _457
REMARK  176  A    between atoms: _457  and  _458
REMARK  177  A    between atoms: _457  and  _460
REMARK  178  A    between atoms: _460  and  _461
REMARK  179  A    between atoms: _471  and  _473
REMARK  180  A    between atoms: _473  and  _474
REMARK  181  A    between atoms: _473  and  _476
REMARK  182  A    between atoms: _476  and  _477
REMARK  183  A    between atoms: _478  and  _480
REMARK  184  A    between atoms: _480  and  _481
REMARK  185  A    between atoms: _484  and  _486
REMARK  186  A    between atoms: _486  and  _487
REMARK  187  A    between atoms: _486  and  _489
REMARK  188  A    between atoms: _489  and  _490
REMARK  189  A    between atoms: _493  and  _495
REMARK  190  A    between atoms: _495  and  _496
REMARK  191  A    between atoms: _495  and  _498
REMARK  192  A    between atoms: _498  and  _499
REMARK  193  A    between atoms: _504  and  _505
REMARK  194  A    between atoms: _507  and  _509
REMARK  195  A    between atoms: _509  and  _510
REMARK  196  A    between atoms: _509  and  _512
REMARK  197  A    between atoms: _512  and  _513
REMARK  198  A    between atoms: _515  and  _517
REMARK  199  A    between atoms: _517  and  _518
REMARK  200  A    between atoms: _517  and  _520
REMARK  201  A    between atoms: _520  and  _521
REMARK  202  A    between atoms: _527  and  _529
REMARK  203  A    between atoms: _529  and  _530
REMARK  204  A    between atoms: _529  and  _532
REMARK  205  A    between atoms: _532  and  _533
REMARK  206  A    between atoms: _536  and  _538
REMARK  207  A    between atoms: _538  and  _539
REMARK  208  A    between atoms: _538  and  _541
REMARK  209  A    between atoms: _541  and  _542
REMARK  210  A    between atoms: _544  and  _546
REMARK  211  A    between atoms: _546  and  _547
REMARK  212  A    between atoms: _546  and  _549
REMARK  213  A    between atoms: _549  and  _550
REMARK  214  A    between atoms: _555  and  _557
REMARK  215  A    between atoms: _557  and  _558
REMARK  216  A    between atoms: _557  and  _560
REMARK  217  A    between atoms: _560  and  _561
REMARK  218  A    between atoms: _566  and  _568
REMARK  219  A    between atoms: _568  and  _569
REMARK  220  A    between atoms: _568  and  _571
REMARK  221  A    between atoms: _571  and  _572
REMARK  222  A    between atoms: _575  and  _577
REMARK  223  A    between atoms: _577  and  _578
REMARK  224  A    between atoms: _581  and  _583
REMARK  225  A    between atoms: _583  and  _584
REMARK  226  A    between atoms: _583  and  _586
REMARK  227  A    between atoms: _586  and  _587
REMARK  228  A    between atoms: _592  and  _593
REMARK  229  A    between atoms: _595  and  _597
REMARK  230  A    between atoms: _597  and  _598
REMARK  231  A    between atoms: _597  and  _600
REMARK  232  A    between atoms: _600  and  _601
REMARK  233  A    between atoms: _606  and  _607
REMARK  234  A    between atoms: _609  and  _611
REMARK  235  A    between atoms: _611  and  _612
REMARK  236  A    between atoms: _611  and  _614
REMARK  237  A    between atoms: _617  and  _619
REMARK  238  A    between atoms: _619  and  _620
REMARK  239  A    between atoms: _619  and  _622
REMARK  240  A    between atoms: _622  and  _623
REMARK  241  A    between atoms: _628  and  _630
REMARK  242  A    between atoms: _630  and  _631
REMARK  243  A    between atoms: _634  and  _636
REMARK  244  A    between atoms: _636  and  _637
REMARK  245  A    between atoms: _636  and  _639
REMARK  246  A    between atoms: _639  and  _640
REMARK  247  A    between atoms: _640  and  _641
REMARK  248  A    between atoms: _641  and  _642
REMARK  249  A    between atoms: _651  and  _653
REMARK  250  A    between atoms: _653  and  _654
REMARK  251  A    between atoms: _653  and  _656
REMARK  252  A    between atoms: _656  and  _657
REMARK  253  A    between atoms: _660  and  _662
REMARK  254  A    between atoms: _662  and  _663
REMARK  255  A    between atoms: _662  and  _665
REMARK  256  A    between atoms: _665  and  _666
REMARK  257  A    between atoms: _669  and  _671
REMARK  258  A    between atoms: _671  and  _672
REMARK  259  A    between atoms: _671  and  _674
REMARK  260  A    between atoms: _674  and  _675
REMARK                            x       y       z     vdW  Elec       q    Type
REMARK                         _______ _______ _______ _____ _____    ______ ____
ROOT
ATOM      1  NE  ARG A   1       4.865  14.566   3.965  0.00  0.00    -0.265 N 
ATOM      2  CZ  ARG A   1       4.312  15.221   4.988  0.00  0.00    +0.342 C 
ATOM      3  NH2 ARG A   1       4.988  15.620   6.076  0.00  0.00    -0.292 N 
ATOM      4 HH21 ARG A   1       4.494  16.127   6.838  0.00  0.00    +0.255 HD
ATOM      5 HH22 ARG A   1       6.006  15.422   6.157  0.00  0.00    +0.255 HD
ATOM      6  NH1 ARG A   1       3.006  15.483   4.943  0.00  0.00    -0.292 N 
ATOM      7 HH11 ARG A   1       2.550  15.992   5.727  0.00  0.00    +0.255 HD
ATOM      8 HH12 ARG A   1       2.442  15.178   4.124  0.00  0.00    +0.255 HD
ATOM      9  HE  ARG A   1       4.251  14.253   3.186  0.00  0.00    +0.259 HD
ENDROOT
BRANCH   1  10
ATOM     10  CD  ARG A   1       6.308  14.266   3.890  0.00  0.00    +0.174 C 
BRANCH  10  11
ATOM     11  CG  ARG A   1       7.059  15.538   3.479  0.00  0.00    +0.045 C 
BRANCH  11  12
ATOM     12  CB  ARG A   1       6.672  15.957   2.059  0.00  0.00    +0.029 C 
BRANCH  12  13
ATOM     13  CA  ARG A   1       7.619  17.035   1.498  0.00  0.00    +0.133 C 
BRANCH  13  14
ATOM     14  N   ARG A   1       7.398  18.331   2.149  0.00  0.00    -0.239 NA
ATOM     15  H   ARG A   1       6.599  18.447   2.805  0.00  0.00    +0.142 HD
ENDBRANCH  13  14
BRANCH  13  16
ATOM     16  C   ARG A   1       7.466  17.139  -0.009  0.00  0.00    +0.224 C 
ATOM     17  O   ARG A   1       8.101  16.348  -0.709  0.00  0.00    -0.287 OA
ENDBRANCH  13  16
ENDBRANCH  12  13
ENDBRANCH  11  12
ENDBRANCH  10  11
ENDBRANCH   1  10
TORSDOF 6
REMARK  Name = ../refined-set-2016/1b32/1b32_pocket.pdb
REMARK  260 active torsions:
REMARK  status: ('A' for Active; 'I' for Inactive)
REMARK    1  A    between atoms: _1  and  _3
REMARK    2  A    between atoms: _3  and  _4
REMARK    3  A    between atoms: _3  and  _6
REMARK    4  A    between atoms: _6  and  _7
REMARK    5  A    between atoms: _12  and  _14
REMARK    6  A    between atoms: _14  and  _15
REMARK    7  A    between atoms: _14  and  _17
REMARK    8  A    between atoms: _17  and  _18
REMARK    9  A    between atoms: _20  and  _22
REMARK   10  A    between atoms: _22  and  _23
REMARK   11  A    between atoms: _22  and  _25
REMARK   12  A    between atoms: _25  and  _26
REMARK   13  A    between atoms: _26  and  _27
REMARK   14  A    between atoms: _32  and  _34
REMARK   15  A    between atoms: _34  and  _35
REMARK   16  A    between atoms: _34  and  _37
REMARK   17  A    between atoms: _37  and  _38
REMARK   18  A    between atoms: _41  and  _43
REMARK   19  A    between atoms: _43  and  _44
REMARK   20  A    between atoms: _43  and  _46
REMARK   21  A    between atoms: _46  and  _47
REMARK   22  A    between atoms: _47  and  _48
REMARK   23  A    between atoms: _51  and  _53
REMARK   24  A    between atoms: _53  and  _54
REMARK   25  A    between atoms: _56  and  _58
REMARK   26  A    between atoms: _58  and  _59
REMARK   27  A    between atoms: _58  and  _61
REMARK   28  A    between atoms: _65  and  _66
REMARK   29  A    between atoms: _71  and  _73
REMARK   30  A    between atoms: _73  and  _74
REMARK   31  A    between atoms: _73  and  _76
REMARK   32  A    between atoms: _76  and  _77
REMARK   33  A    between atoms: _77  and  _78
REMARK   34  A    between atoms: _81  and  _83
REMARK   35  A    between atoms: _83  and  _84
REMARK   36  A    between atoms: _83  and  _86
REMARK   37  A    between atoms: _86  and  _87
REMARK   38  A    between atoms: _89  and  _91
REMARK   39  A    between atoms: _91  and  _92
REMARK   40  A    between atoms: _91  and  _94
REMARK   41  A    between atoms: _94  and  _95
REMARK   42  A    between atoms: _100  and  _102
REMARK   43  A    between atoms: _102  and  _103
REMARK   44  A    between atoms: _102  and  _105
REMARK   45  A    between atoms: _105  and  _106
REMARK   46  A    between atoms: _106  and  _107
REMARK   47  A    between atoms: _107  and  _108
REMARK   48  A    between atoms: _118  and  _119
REMARK   49  A    between atoms: _124  and  _126
REMARK   50  A    between atoms: _126  and  _127
REMARK   51  A    between atoms: _126  and  _129
REMARK   52  A    between atoms: _129  and  _130
REMARK   53  A    between atoms: _135  and  _136
REMARK   54  A    between atoms: _138  and  _140
REMARK   55  A    between atoms: _140  and  _141
REMARK   56  A    between atoms: _140  and  _143
REMARK   57  A    between atoms: _143  and  _144
REMARK   58  A    between atoms: _149  and  _150
REMARK   59  A    between atoms: _152  and  _154
REMARK   60  A    between atoms: _154  and  _155
REMARK   61  A    between atoms: _154  and  _157
REMARK   62  A    between atoms: _160  and  _162
REMARK   63  A    between atoms: _162  and  _163
REMARK   64  A    between atoms: _162  and  _165
REMARK   65  A    between atoms: _165  and  _166
REMARK   66  A    between atoms: _172  and  _173
REMARK   67  A    between atoms: _178  and  _180
REMARK   68  A    between atoms: _180  and  _181
REMARK   69  A    between atoms: _180  and  _183
REMARK   70  A    between atoms: _183  and  _184
REMARK   71  A    between atoms: _186  and  _188
REMARK   72  A    between atoms: _188  and  _189
REMARK   73  A    between atoms: _188  and  _191
REMARK   74  A    between atoms: _191  and  _192
REMARK   75  A    between atoms: _197  and  _198
REMARK   76  A    between atoms: _200  and  _202
REMARK   77  A    between atoms: _202  and  _203
REMARK   78  A    between atoms: _202  and  _205
REMARK   79  A    between atoms: _205  and  _206
REMARK   80  A    between atoms: _211  and  _213
REMARK   81  A    between atoms: _213  and  _214
REMARK   82  A    between atoms: _213  and  _216
REMARK   83  A    between atoms: _216  and  _217
REMARK   84  A    between atoms: _222  and  _224
REMARK   85  A    between atoms: _224  and  _225
REMARK   86  A    between atoms: _224  and  _227
REMARK   87  A    between atoms: _227  and  _228
REMARK   88  A    between atoms: _228  and  _229
REMARK   89  A    between atoms: _231  and  _233
REMARK   90  A    between atoms: _233  and  _234
REMARK   91  A    between atoms: _233  and  _236
REMARK   92  A    between atoms: _236  and  _237
REMARK   93  A    between atoms: _242  and  _243
REMARK   94  A    between atoms: _245  and  _247
REMARK   95  A    between atoms: _247  and  _248
REMARK   96  A    between atoms: _247  and  _250
REMARK   97  A    between atoms: _250  and  _251
REMARK   98  A    between atoms: _254  and  _256
REMARK   99  A    between atoms: _256  and  _257
REMARK  100  A    between atoms: _256  and  _259
REMARK  101  A    between atoms: _259  and  _260
REMARK  102  A    between atoms: _260  and  _477
REMARK  103  A    between atoms: _261  and  _263
REMARK  104  A    between atoms: _263  and  _264
REMARK  105  A    between atoms: _263  and  _266
REMARK  106  A    between atoms: _266  and  _267
REMARK  107  A    between atoms: _270  and  _272
REMARK  108  A    between atoms: _272  and  _273
REMARK  109  A    between atoms: _272  and  _275
REMARK  110  A    between atoms: _275  and  _276
REMARK  111  A    between atoms: _281  and  _282
REMARK  112  A    between atoms: _284  and  _286
REMARK  113  A    between atoms: _286  and  _287
REMARK  114  A    between atoms: _286  and  _289
REMARK  115  A    between atoms: _289  and  _290
REMARK  116  A    between atoms: _295  and  _296
REMARK  117  A    between atoms: _298  and  _300
REMARK  118  A    between atoms: _300  and  _301
REMARK  119  A    between atoms: _300  and  _303
REMARK  120  A    between atoms: _303  and  _304
REMARK  121  A    between atoms: _304  and  _305
REMARK  122  A    between atoms: _308  and  _310
REMARK  123  A    between atoms: _310  and  _311
REMARK  124  A    between atoms: _310  and  _313
REMARK  125  A    between atoms: _313  and  _314
REMARK  126  A    between atoms: _319  and  _320
REMARK  127  A    between atoms: _322  and  _324
REMARK  128  A    between atoms: _324  and  _325
REMARK  129  A    between atoms: _324  and  _327
REMARK  130  A    between atoms: _327  and  _328
REMARK  131  A    between atoms: _333  and  _335
REMARK  132  A    between atoms: _335  and  _336
REMARK  133  A    between atoms: _335  and  _338
REMARK  134  A    between atoms: _338  and  _339
REMARK  135  A    between atoms: _342  and  _344
REMARK  136  A    between atoms: _344  and  _345
REMARK  137  A    between atoms: _344  and  _347
REMARK  138  A    between atoms: _347  and  _348
REMARK  139  A    between atoms: _353  and  _355
REMARK  140  A    between atoms: _355  and  _356
REMARK  141  A    between atoms: _355  and  _358
REMARK  142  A    between atoms: _358  and  _359
REMARK  143  A    between atoms: _369  and  _371
REMARK  144  A    between atoms: _371  and  _372
REMARK  145  A    between atoms: _371  and  _374
REMARK  146  A    between atoms: _374  and  _375
REMARK  147  A    between atoms: _381  and  _383
REMARK  148  A    between atoms: _383  and  _384
REMARK  149  A    between atoms: _383  and  _386
REMARK  150  A    between atoms: _386  and  _387
REMARK  151  A    between atoms: _390  and  _392
REMARK  152  A    between atoms: _392  and  _393
REMARK  153  A    between atoms: _392  and  _395
REMARK  154  A    between atoms: _395  and  _396
REMARK  155  A    between atoms: _399  and  _401
REMARK  156  A    between atoms: _401  and  _402
REMARK  157  A    between atoms: _401  and  _404
REMARK  158  A    between atoms: _404  and  _405
REMARK  159  A    between atoms: _405  and  _406
REMARK  160  A    between atoms: _406  and  _407
REMARK  161  A    between atoms: _416  and  _418
REMARK  162  A    between atoms: _418  and  _419
REMARK  163  A    between atoms: _418  and  _421
REMARK  164  A    between atoms: _421  and  _422
REMARK  165  A    between atoms: _427  and  _429
REMARK  166  A    between atoms: _429  and  _430
REMARK  167  A    between atoms: _429  and  _432
REMARK  168  A    between atoms: _432  and  _433
REMARK  169  A    between atoms: _433  and  _434
REMARK  170  A    between atoms: _434  and  _435
REMARK  171  A    between atoms: _444  and  _446
REMARK  172  A    between atoms: _446  and  _447
REMARK  173  A    between atoms: _450  and  _452
REMARK  174  A    between atoms: _452  and  _453
REMARK  175  A    between atoms: _455  and  _457
REMARK  176  A    between atoms: _457  and  _458
REMARK  177  A    between atoms: _457  and  _460
REMARK  178  A    between atoms: _460  and  _461
REMARK  179  A    between atoms: _471  and  _473
REMARK  180  A    between atoms: _473  and  _474
REMARK  181  A    between atoms: _473  and  _476
REMARK  182  A    between atoms: _476  and  _477
REMARK  183  A    between atoms: _478  and  _480
REMARK  184  A    between atoms: _480  and  _481
REMARK  185  A    between atoms: _484  and  _486
REMARK  186  A    between atoms: _486  and  _487
REMARK  187  A    between atoms: _486  and  _489
REMARK  188  A    between atoms: _489  and  _490
REMARK  189  A    between atoms: _493  and  _495
REMARK  190  A    between atoms: _495  and  _496
REMARK  191  A    between atoms: _495  and  _498
REMARK  192  A    between atoms: _498  and  _499
REMARK  193  A    between atoms: _504  and  _505
REMARK  194  A    between atoms: _507  and  _509
REMARK  195  A    between atoms: _509  and  _510
REMARK  196  A    between atoms: _509  and  _512
REMARK  197  A    between atoms: _512  and  _513
REMARK  198  A    between atoms: _515  and  _517
REMARK  199  A    between atoms: _517  and  _518
REMARK  200  A    between atoms: _517  and  _520
REMARK  201  A    between atoms: _520  and  _521
REMARK  202  A    between atoms: _527  and  _529
REMARK  203  A    between atoms: _529  and  _530
REMARK  204  A    between atoms: _529  and  _532
REMARK  205  A    between atoms: _532  and  _533
REMARK  206  A    between atoms: _536  and  _538
REMARK  207  A    between atoms: _538  and  _539
REMARK  208  A    between atoms: _538  and  _541
REMARK  209  A    between atoms: _541  and  _542
REMARK  210  A    between atoms: _544  and  _546
REMARK  211  A    between atoms: _546  and  _547
REMARK  212  A    between atoms: _546  and  _549
REMARK  213  A    between atoms: _549  and  _550
REMARK  214  A    between atoms: _555  and  _557
REMARK  215  A    between atoms: _557  and  _558
REMARK  216  A    between atoms: _557  and  _560
REMARK  217  A    between atoms: _560  and  _561
REMARK  218  A    between atoms: _566  and  _568
REMARK  219  A    between atoms: _568  and  _569
REMARK  220  A    between atoms: _568  and  _571
REMARK  221  A    between atoms: _571  and  _572
REMARK  222  A    between atoms: _575  and  _577
REMARK  223  A    between atoms: _577  and  _578
REMARK  224  A    between atoms: _581  and  _583
REMARK  225  A    between atoms: _583  and  _584
REMARK  226  A    between atoms: _583  and  _586
REMARK  227  A    between atoms: _586  and  _587
REMARK  228  A    between atoms: _592  and  _593
REMARK  229  A    between atoms: _595  and  _597
REMARK  230  A    between atoms: _597  and  _598
REMARK  231  A    between atoms: _597  and  _600
REMARK  232  A    between atoms: _600  and  _601
REMARK  233  A    between atoms: _606  and  _607
REMARK  234  A    between atoms: _609  and  _611
REMARK  235  A    between atoms: _611  and  _612
REMARK  236  A    between atoms: _611  and  _614
REMARK  237  A    between atoms: _617  and  _619
REMARK  238  A    between atoms: _619  and  _620
REMARK  239  A    between atoms: _619  and  _622
REMARK  240  A    between atoms: _622  and  _623
REMARK  241  A    between atoms: _628  and  _630
REMARK  242  A    between atoms: _630  and  _631
REMARK  243  A    between atoms: _634  and  _636
REMARK  244  A    between atoms: _636  and  _637
REMARK  245  A    between atoms: _636  and  _639
REMARK  246  A    between atoms: _639  and  _640
REMARK  247  A    between atoms: _640  and  _641
REMARK  248  A    between atoms: _641  and  _642
REMARK  249  A    between atoms: _651  and  _653
REMARK  250  A    between atoms: _653  and  _654
REMARK  251  A    between atoms: _653  and  _656
REMARK  252  A    between atoms: _656  and  _657
REMARK  253  A    between atoms: _660  and  _662
REMARK  254  A    between atoms: _662  and  _663
REMARK  255  A    between atoms: _662  and  _665
REMARK  256  A    between atoms: _665  and  _666
REMARK  257  A    between atoms: _669  and  _671
REMARK  258  A    between atoms: _671  and  _672
REMARK  259  A    between atoms: _671  and  _674
REMARK  260  A    between atoms: _674  and  _675
REMARK                            x       y       z     vdW  Elec       q    Type
REMARK                         _______ _______ _______ _____ _____    ______ ____
ROOT
ATOM      1  CA  TYR A   2      14.870  21.451  14.922  0.00  0.00    +0.141 C 
ENDROOT
BRANCH   1   4
ATOM      2  C   PRO A   1      13.915  23.329  16.153  0.00  0.00    +0.239 C 
ATOM      3  O   PRO A   1      13.641  22.623  17.142  0.00  0.00    -0.274 OA
ATOM      4  N   TYR A   2      14.460  22.840  15.028  0.00  0.00    -0.298 N 
ATOM      5  H   TYR A   2      14.592  23.471  14.212  0.00  0.00    +0.150 HD
BRANCH   2   7
ATOM      6  N   PRO A   1      14.271  25.504  15.110  0.00  0.00    -0.210 NA
ATOM      7  CA  PRO A   1      13.552  24.809  16.177  0.00  0.00    +0.149 C 
ATOM      8  CB  PRO A   1      12.077  25.005  15.794  0.00  0.00    +0.028 C 
ATOM      9  CG  PRO A   1      12.099  25.168  14.283  0.00  0.00    +0.021 C 
ATOM     10  CD  PRO A   1      13.360  26.013  14.066  0.00  0.00    +0.089 C 
ENDBRANCH   2   7
ENDBRANCH   1   4
BRANCH   1  11
ATOM     11  C   TYR A   2      16.385  21.257  14.925  0.00  0.00    +0.227 C 
ATOM     12  O   TYR A   2      16.906  20.210  14.541  0.00  0.00    -0.286 OA
ENDBRANCH   1  11
BRANCH   1  13
ATOM     13  CB  TYR A   2      14.245  20.746  13.728  0.00  0.00    +0.054 C 
BRANCH  13  14
ATOM     14  CG  TYR A   2      12.967  19.988  13.997  0.00  0.00    -0.020 A 
ATOM     15  CD2 TYR A   2      13.024  18.731  14.570  0.00  0.00    -0.001 A 
ATOM     16  CE2 TYR A   2      11.880  17.994  14.849  0.00  0.00    +0.036 A 
ATOM     17  CZ  TYR A   2      10.654  18.526  14.504  0.00  0.00    +0.134 A 
ATOM     18  CE1 TYR A   2      10.567  19.789  13.955  0.00  0.00    +0.036 A 
ATOM     19  CD1 TYR A   2      11.713  20.527  13.706  0.00  0.00    -0.001 A 
BRANCH  17  20
ATOM     20  OH  TYR A   2       9.525  17.783  14.723  0.00  0.00    -0.506 OA
ATOM     21  HH  TYR A   2       9.777  16.911  15.119  0.00  0.00    +0.292 HD
ENDBRANCH  17  20
ENDBRANCH  13  14
ENDBRANCH   1  13
TORSDOF 6
REMARK  Name = ../refined-set-2016/1b32/1b32_pocket.pdb
REMARK  260 active torsions:
REMARK  status: ('A' for Active; 'I' for Inactive)
REMARK    1  A    between atoms: _1  and  _3
REMARK    2  A    between atoms: _3  and  _4
REMARK    3  A    between atoms: _3  and  _6
REMARK    4  A    between atoms: _6  and  _7
REMARK    5  A    between atoms: _12  and  _14
REMARK    6  A    between atoms: _14  and  _15
REMARK    7  A    between atoms: _14  and  _17
REMARK    8  A    between atoms: _17  and  _18
REMARK    9  A    between atoms: _20  and  _22
REMARK   10  A    between atoms: _22  and  _23
REMARK   11  A    between atoms: _22  and  _25
REMARK   12  A    between atoms: _25  and  _26
REMARK   13  A    between atoms: _26  and  _27
REMARK   14  A    between atoms: _32  and  _34
REMARK   15  A    between atoms: _34  and  _35
REMARK   16  A    between atoms: _34  and  _37
REMARK   17  A    between atoms: _37  and  _38
REMARK   18  A    between atoms: _41  and  _43
REMARK   19  A    between atoms: _43  and  _44
REMARK   20  A    between atoms: _43  and  _46
REMARK   21  A    between atoms: _46  and  _47
REMARK   22  A    between atoms: _47  and  _48
REMARK   23  A    between atoms: _51  and  _53
REMARK   24  A    between atoms: _53  and  _54
REMARK   25  A    between atoms: _56  and  _58
REMARK   26  A    between atoms: _58  and  _59
REMARK   27  A    between atoms: _58  and  _61
REMARK   28  A    between atoms: _65  and  _66
REMARK   29  A    between atoms: _71  and  _73
REMARK   30  A    between atoms: _73  and  _74
REMARK   31  A    between atoms: _73  and  _76
REMARK   32  A    between atoms: _76  and  _77
REMARK   33  A    between atoms: _77  and  _78
REMARK   34  A    between atoms: _81  and  _83
REMARK   35  A    between atoms: _83  and  _84
REMARK   36  A    between atoms: _83  and  _86
REMARK   37  A    between atoms: _86  and  _87
REMARK   38  A    between atoms: _89  and  _91
REMARK   39  A    between atoms: _91  and  _92
REMARK   40  A    between atoms: _91  and  _94
REMARK   41  A    between atoms: _94  and  _95
REMARK   42  A    between atoms: _100  and  _102
REMARK   43  A    between atoms: _102  and  _103
REMARK   44  A    between atoms: _102  and  _105
REMARK   45  A    between atoms: _105  and  _106
REMARK   46  A    between atoms: _106  and  _107
REMARK   47  A    between atoms: _107  and  _108
REMARK   48  A    between atoms: _118  and  _119
REMARK   49  A    between atoms: _124  and  _126
REMARK   50  A    between atoms: _126  and  _127
REMARK   51  A    between atoms: _126  and  _129
REMARK   52  A    between atoms: _129  and  _130
REMARK   53  A    between atoms: _135  and  _136
REMARK   54  A    between atoms: _138  and  _140
REMARK   55  A    between atoms: _140  and  _141
REMARK   56  A    between atoms: _140  and  _143
REMARK   57  A    between atoms: _143  and  _144
REMARK   58  A    between atoms: _149  and  _150
REMARK   59  A    between atoms: _152  and  _154
REMARK   60  A    between atoms: _154  and  _155
REMARK   61  A    between atoms: _154  and  _157
REMARK   62  A    between atoms: _160  and  _162
REMARK   63  A    between atoms: _162  and  _163
REMARK   64  A    between atoms: _162  and  _165
REMARK   65  A    between atoms: _165  and  _166
REMARK   66  A    between atoms: _172  and  _173
REMARK   67  A    between atoms: _178  and  _180
REMARK   68  A    between atoms: _180  and  _181
REMARK   69  A    between atoms: _180  and  _183
REMARK   70  A    between atoms: _183  and  _184
REMARK   71  A    between atoms: _186  and  _188
REMARK   72  A    between atoms: _188  and  _189
REMARK   73  A    between atoms: _188  and  _191
REMARK   74  A    between atoms: _191  and  _192
REMARK   75  A    between atoms: _197  and  _198
REMARK   76  A    between atoms: _200  and  _202
REMARK   77  A    between atoms: _202  and  _203
REMARK   78  A    between atoms: _202  and  _205
REMARK   79  A    between atoms: _205  and  _206
REMARK   80  A    between atoms: _211  and  _213
REMARK   81  A    between atoms: _213  and  _214
REMARK   82  A    between atoms: _213  and  _216
REMARK   83  A    between atoms: _216  and  _217
REMARK   84  A    between atoms: _222  and  _224
REMARK   85  A    between atoms: _224  and  _225
REMARK   86  A    between atoms: _224  and  _227
REMARK   87  A    between atoms: _227  and  _228
REMARK   88  A    between atoms: _228  and  _229
REMARK   89  A    between atoms: _231  and  _233
REMARK   90  A    between atoms: _233  and  _234
REMARK   91  A    between atoms: _233  and  _236
REMARK   92  A    between atoms: _236  and  _237
REMARK   93  A    between atoms: _242  and  _243
REMARK   94  A    between atoms: _245  and  _247
REMARK   95  A    between atoms: _247  and  _248
REMARK   96  A    between atoms: _247  and  _250
REMARK   97  A    between atoms: _250  and  _251
REMARK   98  A    between atoms: _254  and  _256
REMARK   99  A    between atoms: _256  and  _257
REMARK  100  A    between atoms: _256  and  _259
REMARK  101  A    between atoms: _259  and  _260
REMARK  102  A    between atoms: _260  and  _477
REMARK  103  A    between atoms: _261  and  _263
REMARK  104  A    between atoms: _263  and  _264
REMARK  105  A    between atoms: _263  and  _266
REMARK  106  A    between atoms: _266  and  _267
REMARK  107  A    between atoms: _270  and  _272
REMARK  108  A    between atoms: _272  and  _273
REMARK  109  A    between atoms: _272  and  _275
REMARK  110  A    between atoms: _275  and  _276
REMARK  111  A    between atoms: _281  and  _282
REMARK  112  A    between atoms: _284  and  _286
REMARK  113  A    between atoms: _286  and  _287
REMARK  114  A    between atoms: _286  and  _289
REMARK  115  A    between atoms: _289  and  _290
REMARK  116  A    between atoms: _295  and  _296
REMARK  117  A    between atoms: _298  and  _300
REMARK  118  A    between atoms: _300  and  _301
REMARK  119  A    between atoms: _300  and  _303
REMARK  120  A    between atoms: _303  and  _304
REMARK  121  A    between atoms: _304  and  _305
REMARK  122  A    between atoms: _308  and  _310
REMARK  123  A    between atoms: _310  and  _311
REMARK  124  A    between atoms: _310  and  _313
REMARK  125  A    between atoms: _313  and  _314
REMARK  126  A    between atoms: _319  and  _320
REMARK  127  A    between atoms: _322  and  _324
REMARK  128  A    between atoms: _324  and  _325
REMARK  129  A    between atoms: _324  and  _327
REMARK  130  A    between atoms: _327  and  _328
REMARK  131  A    between atoms: _333  and  _335
REMARK  132  A    between atoms: _335  and  _336
REMARK  133  A    between atoms: _335  and  _338
REMARK  134  A    between atoms: _338  and  _339
REMARK  135  A    between atoms: _342  and  _344
REMARK  136  A    between atoms: _344  and  _345
REMARK  137  A    between atoms: _344  and  _347
REMARK  138  A    between atoms: _347  and  _348
REMARK  139  A    between atoms: _353  and  _355
REMARK  140  A    between atoms: _355  and  _356
REMARK  141  A    between atoms: _355  and  _358
REMARK  142  A    between atoms: _358  and  _359
REMARK  143  A    between atoms: _369  and  _371
REMARK  144  A    between atoms: _371  and  _372
REMARK  145  A    between atoms: _371  and  _374
REMARK  146  A    between atoms: _374  and  _375
REMARK  147  A    between atoms: _381  and  _383
REMARK  148  A    between atoms: _383  and  _384
REMARK  149  A    between atoms: _383  and  _386
REMARK  150  A    between atoms: _386  and  _387
REMARK  151  A    between atoms: _390  and  _392
REMARK  152  A    between atoms: _392  and  _393
REMARK  153  A    between atoms: _392  and  _395
REMARK  154  A    between atoms: _395  and  _396
REMARK  155  A    between atoms: _399  and  _401
REMARK  156  A    between atoms: _401  and  _402
REMARK  157  A    between atoms: _401  and  _404
REMARK  158  A    between atoms: _404  and  _405
REMARK  159  A    between atoms: _405  and  _406
REMARK  160  A    between atoms: _406  and  _407
REMARK  161  A    between atoms: _416  and  _418
REMARK  162  A    between atoms: _418  and  _419
REMARK  163  A    between atoms: _418  and  _421
REMARK  164  A    between atoms: _421  and  _422
REMARK  165  A    between atoms: _427  and  _429
REMARK  166  A    between atoms: _429  and  _430
REMARK  167  A    between atoms: _429  and  _432
REMARK  168  A    between atoms: _432  and  _433
REMARK  169  A    between atoms: _433  and  _434
REMARK  170  A    between atoms: _434  and  _435
REMARK  171  A    between atoms: _444  and  _446
REMARK  172  A    between atoms: _446  and  _447
REMARK  173  A    between atoms: _450  and  _452
REMARK  174  A    between atoms: _452  and  _453
REMARK  175  A    between atoms: _455  and  _457
REMARK  176  A    between atoms: _457  and  _458
REMARK  177  A    between atoms: _457  and  _460
REMARK  178  A    between atoms: _460  and  _461
REMARK  179  A    between atoms: _471  and  _473
REMARK  180  A    between atoms: _473  and  _474
REMARK  181  A    between atoms: _473  and  _476
REMARK  182  A    between atoms: _476  and  _477
REMARK  183  A    between atoms: _478  and  _480
REMARK  184  A    between atoms: _480  and  _481
REMARK  185  A    between atoms: _484  and  _486
REMARK  186  A    between atoms: _486  and  _487
REMARK  187  A    between atoms: _486  and  _489
REMARK  188  A    between atoms: _489  and  _490
REMARK  189  A    between atoms: _493  and  _495
REMARK  190  A    between atoms: _495  and  _496
REMARK  191  A    between atoms: _495  and  _498
REMARK  192  A    between atoms: _498  and  _499
REMARK  193  A    between atoms: _504  and  _505
REMARK  194  A    between atoms: _507  and  _509
REMARK  195  A    between atoms: _509  and  _510
REMARK  196  A    between atoms: _509  and  _512
REMARK  197  A    between atoms: _512  and  _513
REMARK  198  A    between atoms: _515  and  _517
REMARK  199  A    between atoms: _517  and  _518
REMARK  200  A    between atoms: _517  and  _520
REMARK  201  A    between atoms: _520  and  _521
REMARK  202  A    between atoms: _527  and  _529
REMARK  203  A    between atoms: _529  and  _530
REMARK  204  A    between atoms: _529  and  _532
REMARK  205  A    between atoms: _532  and  _533
REMARK  206  A    between atoms: _536  and  _538
REMARK  207  A    between atoms: _538  and  _539
REMARK  208  A    between atoms: _538  and  _541
REMARK  209  A    between atoms: _541  and  _542
REMARK  210  A    between atoms: _544  and  _546
REMARK  211  A    between atoms: _546  and  _547
REMARK  212  A    between atoms: _546  and  _549
REMARK  213  A    between atoms: _549  and  _550
REMARK  214  A    between atoms: _555  and  _557
REMARK  215  A    between atoms: _557  and  _558
REMARK  216  A    between atoms: _557  and  _560
REMARK  217  A    between atoms: _560  and  _561
REMARK  218  A    between atoms: _566  and  _568
REMARK  219  A    between atoms: _568  and  _569
REMARK  220  A    between atoms: _568  and  _571
REMARK  221  A    between atoms: _571  and  _572
REMARK  222  A    between atoms: _575  and  _577
REMARK  223  A    between atoms: _577  and  _578
REMARK  224  A    between atoms: _581  and  _583
REMARK  225  A    between atoms: _583  and  _584
REMARK  226  A    between atoms: _583  and  _586
REMARK  227  A    between atoms: _586  and  _587
REMARK  228  A    between atoms: _592  and  _593
REMARK  229  A    between atoms: _595  and  _597
REMARK  230  A    between atoms: _597  and  _598
REMARK  231  A    between atoms: _597  and  _600
REMARK  232  A    between atoms: _600  and  _601
REMARK  233  A    between atoms: _606  and  _607
REMARK  234  A    between atoms: _609  and  _611
REMARK  235  A    between atoms: _611  and  _612
REMARK  236  A    between atoms: _611  and  _614
REMARK  237  A    between atoms: _617  and  _619
REMARK  238  A    between atoms: _619  and  _620
REMARK  239  A    between atoms: _619  and  _622
REMARK  240  A    between atoms: _622  and  _623
REMARK  241  A    between atoms: _628  and  _630
REMARK  242  A    between atoms: _630  and  _631
REMARK  243  A    between atoms: _634  and  _636
REMARK  244  A    between atoms: _636  and  _637
REMARK  245  A    between atoms: _636  and  _639
REMARK  246  A    between atoms: _639  and  _640
REMARK  247  A    between atoms: _640  and  _641
REMARK  248  A    between atoms: _641  and  _642
REMARK  249  A    between atoms: _651  and  _653
REMARK  250  A    between atoms: _653  and  _654
REMARK  251  A    between atoms: _653  and  _656
REMARK  252  A    between atoms: _656  and  _657
REMARK  253  A    between atoms: _660  and  _662
REMARK  254  A    between atoms: _662  and  _663
REMARK  255  A    between atoms: _662  and  _665
REMARK  256  A    between atoms: _665  and  _666
REMARK  257  A    between atoms: _669  and  _671
REMARK  258  A    between atoms: _671  and  _672
REMARK  259  A    between atoms: _671  and  _674
REMARK  260  A    between atoms: _674  and  _675
REMARK                            x       y       z     vdW  Elec       q    Type
REMARK                         _______ _______ _______ _____ _____    ______ ____
ROOT
ATOM      1  CG  TYR A   1      15.750  15.824  13.610  0.00  0.00    -0.020 A 
ATOM      2  CD2 TYR A   1      14.621  15.387  14.312  0.00  0.00    -0.001 A 
ATOM      3  CE2 TYR A   1      13.855  14.340  13.839  0.00  0.00    +0.036 A 
ATOM      4  CZ  TYR A   1      14.190  13.734  12.639  0.00  0.00    +0.134 A 
ATOM      5  CE1 TYR A   1      15.309  14.134  11.928  0.00  0.00    +0.036 A 
ATOM      6  CD1 TYR A   1      16.071  15.194  12.421  0.00  0.00    -0.001 A 
ENDROOT
BRANCH   4   7
ATOM      7  OH  TYR A   1      13.403  12.703  12.180  0.00  0.00    -0.506 OA
ATOM      8  HH  TYR A   1      13.044  12.936  11.287  0.00  0.00    +0.292 HD
ENDBRANCH   4   7
BRANCH   1   9
ATOM      9  CB  TYR A   1      16.565  16.985  14.166  0.00  0.00    +0.051 C 
BRANCH   9  10
ATOM     10  CA  TYR A   1      17.215  16.663  15.515  0.00  0.00    +0.137 C 
BRANCH  10  11
ATOM     11  N   TYR A   1      17.420  17.892  16.271  0.00  0.00    -0.239 NA
ATOM     12  H   TYR A   1      17.136  18.799  15.848  0.00  0.00    +0.142 HD
ENDBRANCH  10  11
BRANCH  10  13
ATOM     13  C   TYR A   1      18.576  15.976  15.321  0.00  0.00    +0.224 C 
ATOM     14  O   TYR A   1      18.633  14.751  15.311  0.00  0.00    -0.287 OA
ENDBRANCH  10  13
ENDBRANCH   9  10
ENDBRANCH   1   9
TORSDOF 5
REMARK  Name = ../refined-set-2016/1b32/1b32_pocket.pdb
REMARK  260 active torsions:
REMARK  status: ('A' for Active; 'I' for Inactive)
REMARK    1  A    between atoms: _1  and  _3
REMARK    2  A    between atoms: _3  and  _4
REMARK    3  A    between atoms: _3  and  _6
REMARK    4  A    between atoms: _6  and  _7
REMARK    5  A    between atoms: _12  and  _14
REMARK    6  A    between atoms: _14  and  _15
REMARK    7  A    between atoms: _14  and  _17
REMARK    8  A    between atoms: _17  and  _18
REMARK    9  A    between atoms: _20  and  _22
REMARK   10  A    between atoms: _22  and  _23
REMARK   11  A    between atoms: _22  and  _25
REMARK   12  A    between atoms: _25  and  _26
REMARK   13  A    between atoms: _26  and  _27
REMARK   14  A    between atoms: _32  and  _34
REMARK   15  A    between atoms: _34  and  _35
REMARK   16  A    between atoms: _34  and  _37
REMARK   17  A    between atoms: _37  and  _38
REMARK   18  A    between atoms: _41  and  _43
REMARK   19  A    between atoms: _43  and  _44
REMARK   20  A    between atoms: _43  and  _46
REMARK   21  A    between atoms: _46  and  _47
REMARK   22  A    between atoms: _47  and  _48
REMARK   23  A    between atoms: _51  and  _53
REMARK   24  A    between atoms: _53  and  _54
REMARK   25  A    between atoms: _56  and  _58
REMARK   26  A    between atoms: _58  and  _59
REMARK   27  A    between atoms: _58  and  _61
REMARK   28  A    between atoms: _65  and  _66
REMARK   29  A    between atoms: _71  and  _73
REMARK   30  A    between atoms: _73  and  _74
REMARK   31  A    between atoms: _73  and  _76
REMARK   32  A    between atoms: _76  and  _77
REMARK   33  A    between atoms: _77  and  _78
REMARK   34  A    between atoms: _81  and  _83
REMARK   35  A    between atoms: _83  and  _84
REMARK   36  A    between atoms: _83  and  _86
REMARK   37  A    between atoms: _86  and  _87
REMARK   38  A    between atoms: _89  and  _91
REMARK   39  A    between atoms: _91  and  _92
REMARK   40  A    between atoms: _91  and  _94
REMARK   41  A    between atoms: _94  and  _95
REMARK   42  A    between atoms: _100  and  _102
REMARK   43  A    between atoms: _102  and  _103
REMARK   44  A    between atoms: _102  and  _105
REMARK   45  A    between atoms: _105  and  _106
REMARK   46  A    between atoms: _106  and  _107
REMARK   47  A    between atoms: _107  and  _108
REMARK   48  A    between atoms: _118  and  _119
REMARK   49  A    between atoms: _124  and  _126
REMARK   50  A    between atoms: _126  and  _127
REMARK   51  A    between atoms: _126  and  _129
REMARK   52  A    between atoms: _129  and  _130
REMARK   53  A    between atoms: _135  and  _136
REMARK   54  A    between atoms: _138  and  _140
REMARK   55  A    between atoms: _140  and  _141
REMARK   56  A    between atoms: _140  and  _143
REMARK   57  A    between atoms: _143  and  _144
REMARK   58  A    between atoms: _149  and  _150
REMARK   59  A    between atoms: _152  and  _154
REMARK   60  A    between atoms: _154  and  _155
REMARK   61  A    between atoms: _154  and  _157
REMARK   62  A    between atoms: _160  and  _162
REMARK   63  A    between atoms: _162  and  _163
REMARK   64  A    between atoms: _162  and  _165
REMARK   65  A    between atoms: _165  and  _166
REMARK   66  A    between atoms: _172  and  _173
REMARK   67  A    between atoms: _178  and  _180
REMARK   68  A    between atoms: _180  and  _181
REMARK   69  A    between atoms: _180  and  _183
REMARK   70  A    between atoms: _183  and  _184
REMARK   71  A    between atoms: _186  and  _188
REMARK   72  A    between atoms: _188  and  _189
REMARK   73  A    between atoms: _188  and  _191
REMARK   74  A    between atoms: _191  and  _192
REMARK   75  A    between atoms: _197  and  _198
REMARK   76  A    between atoms: _200  and  _202
REMARK   77  A    between atoms: _202  and  _203
REMARK   78  A    between atoms: _202  and  _205
REMARK   79  A    between atoms: _205  and  _206
REMARK   80  A    between atoms: _211  and  _213
REMARK   81  A    between atoms: _213  and  _214
REMARK   82  A    between atoms: _213  and  _216
REMARK   83  A    between atoms: _216  and  _217
REMARK   84  A    between atoms: _222  and  _224
REMARK   85  A    between atoms: _224  and  _225
REMARK   86  A    between atoms: _224  and  _227
REMARK   87  A    between atoms: _227  and  _228
REMARK   88  A    between atoms: _228  and  _229
REMARK   89  A    between atoms: _231  and  _233
REMARK   90  A    between atoms: _233  and  _234
REMARK   91  A    between atoms: _233  and  _236
REMARK   92  A    between atoms: _236  and  _237
REMARK   93  A    between atoms: _242  and  _243
REMARK   94  A    between atoms: _245  and  _247
REMARK   95  A    between atoms: _247  and  _248
REMARK   96  A    between atoms: _247  and  _250
REMARK   97  A    between atoms: _250  and  _251
REMARK   98  A    between atoms: _254  and  _256
REMARK   99  A    between atoms: _256  and  _257
REMARK  100  A    between atoms: _256  and  _259
REMARK  101  A    between atoms: _259  and  _260
REMARK  102  A    between atoms: _260  and  _477
REMARK  103  A    between atoms: _261  and  _263
REMARK  104  A    between atoms: _263  and  _264
REMARK  105  A    between atoms: _263  and  _266
REMARK  106  A    between atoms: _266  and  _267
REMARK  107  A    between atoms: _270  and  _272
REMARK  108  A    between atoms: _272  and  _273
REMARK  109  A    between atoms: _272  and  _275
REMARK  110  A    between atoms: _275  and  _276
REMARK  111  A    between atoms: _281  and  _282
REMARK  112  A    between atoms: _284  and  _286
REMARK  113  A    between atoms: _286  and  _287
REMARK  114  A    between atoms: _286  and  _289
REMARK  115  A    between atoms: _289  and  _290
REMARK  116  A    between atoms: _295  and  _296
REMARK  117  A    between atoms: _298  and  _300
REMARK  118  A    between atoms: _300  and  _301
REMARK  119  A    between atoms: _300  and  _303
REMARK  120  A    between atoms: _303  and  _304
REMARK  121  A    between atoms: _304  and  _305
REMARK  122  A    between atoms: _308  and  _310
REMARK  123  A    between atoms: _310  and  _311
REMARK  124  A    between atoms: _310  and  _313
REMARK  125  A    between atoms: _313  and  _314
REMARK  126  A    between atoms: _319  and  _320
REMARK  127  A    between atoms: _322  and  _324
REMARK  128  A    between atoms: _324  and  _325
REMARK  129  A    between atoms: _324  and  _327
REMARK  130  A    between atoms: _327  and  _328
REMARK  131  A    between atoms: _333  and  _335
REMARK  132  A    between atoms: _335  and  _336
REMARK  133  A    between atoms: _335  and  _338
REMARK  134  A    between atoms: _338  and  _339
REMARK  135  A    between atoms: _342  and  _344
REMARK  136  A    between atoms: _344  and  _345
REMARK  137  A    between atoms: _344  and  _347
REMARK  138  A    between atoms: _347  and  _348
REMARK  139  A    between atoms: _353  and  _355
REMARK  140  A    between atoms: _355  and  _356
REMARK  141  A    between atoms: _355  and  _358
REMARK  142  A    between atoms: _358  and  _359
REMARK  143  A    between atoms: _369  and  _371
REMARK  144  A    between atoms: _371  and  _372
REMARK  145  A    between atoms: _371  and  _374
REMARK  146  A    between atoms: _374  and  _375
REMARK  147  A    between atoms: _381  and  _383
REMARK  148  A    between atoms: _383  and  _384
REMARK  149  A    between atoms: _383  and  _386
REMARK  150  A    between atoms: _386  and  _387
REMARK  151  A    between atoms: _390  and  _392
REMARK  152  A    between atoms: _392  and  _393
REMARK  153  A    between atoms: _392  and  _395
REMARK  154  A    between atoms: _395  and  _396
REMARK  155  A    between atoms: _399  and  _401
REMARK  156  A    between atoms: _401  and  _402
REMARK  157  A    between atoms: _401  and  _404
REMARK  158  A    between atoms: _404  and  _405
REMARK  159  A    between atoms: _405  and  _406
REMARK  160  A    between atoms: _406  and  _407
REMARK  161  A    between atoms: _416  and  _418
REMARK  162  A    between atoms: _418  and  _419
REMARK  163  A    between atoms: _418  and  _421
REMARK  164  A    between atoms: _421  and  _422
REMARK  165  A    between atoms: _427  and  _429
REMARK  166  A    between atoms: _429  and  _430
REMARK  167  A    between atoms: _429  and  _432
REMARK  168  A    between atoms: _432  and  _433
REMARK  169  A    between atoms: _433  and  _434
REMARK  170  A    between atoms: _434  and  _435
REMARK  171  A    between atoms: _444  and  _446
REMARK  172  A    between atoms: _446  and  _447
REMARK  173  A    between atoms: _450  and  _452
REMARK  174  A    between atoms: _452  and  _453
REMARK  175  A    between atoms: _455  and  _457
REMARK  176  A    between atoms: _457  and  _458
REMARK  177  A    between atoms: _457  and  _460
REMARK  178  A    between atoms: _460  and  _461
REMARK  179  A    between atoms: _471  and  _473
REMARK  180  A    between atoms: _473  and  _474
REMARK  181  A    between atoms: _473  and  _476
REMARK  182  A    between atoms: _476  and  _477
REMARK  183  A    between atoms: _478  and  _480
REMARK  184  A    between atoms: _480  and  _481
REMARK  185  A    between atoms: _484  and  _486
REMARK  186  A    between atoms: _486  and  _487
REMARK  187  A    between atoms: _486  and  _489
REMARK  188  A    between atoms: _489  and  _490
REMARK  189  A    between atoms: _493  and  _495
REMARK  190  A    between atoms: _495  and  _496
REMARK  191  A    between atoms: _495  and  _498
REMARK  192  A    between atoms: _498  and  _499
REMARK  193  A    between atoms: _504  and  _505
REMARK  194  A    between atoms: _507  and  _509
REMARK  195  A    between atoms: _509  and  _510
REMARK  196  A    between atoms: _509  and  _512
REMARK  197  A    between atoms: _512  and  _513
REMARK  198  A    between atoms: _515  and  _517
REMARK  199  A    between atoms: _517  and  _518
REMARK  200  A    between atoms: _517  and  _520
REMARK  201  A    between atoms: _520  and  _521
REMARK  202  A    between atoms: _527  and  _529
REMARK  203  A    between atoms: _529  and  _530
REMARK  204  A    between atoms: _529  and  _532
REMARK  205  A    between atoms: _532  and  _533
REMARK  206  A    between atoms: _536  and  _538
REMARK  207  A    between atoms: _538  and  _539
REMARK  208  A    between atoms: _538  and  _541
REMARK  209  A    between atoms: _541  and  _542
REMARK  210  A    between atoms: _544  and  _546
REMARK  211  A    between atoms: _546  and  _547
REMARK  212  A    between atoms: _546  and  _549
REMARK  213  A    between atoms: _549  and  _550
REMARK  214  A    between atoms: _555  and  _557
REMARK  215  A    between atoms: _557  and  _558
REMARK  216  A    between atoms: _557  and  _560
REMARK  217  A    between atoms: _560  and  _561
REMARK  218  A    between atoms: _566  and  _568
REMARK  219  A    between atoms: _568  and  _569
REMARK  220  A    between atoms: _568  and  _571
REMARK  221  A    between atoms: _571  and  _572
REMARK  222  A    between atoms: _575  and  _577
REMARK  223  A    between atoms: _577  and  _578
REMARK  224  A    between atoms: _581  and  _583
REMARK  225  A    between atoms: _583  and  _584
REMARK  226  A    between atoms: _583  and  _586
REMARK  227  A    between atoms: _586  and  _587
REMARK  228  A    between atoms: _592  and  _593
REMARK  229  A    between atoms: _595  and  _597
REMARK  230  A    between atoms: _597  and  _598
REMARK  231  A    between atoms: _597  and  _600
REMARK  232  A    between atoms: _600  and  _601
REMARK  233  A    between atoms: _606  and  _607
REMARK  234  A    between atoms: _609  and  _611
REMARK  235  A    between atoms: _611  and  _612
REMARK  236  A    between atoms: _611  and  _614
REMARK  237  A    between atoms: _617  and  _619
REMARK  238  A    between atoms: _619  and  _620
REMARK  239  A    between atoms: _619  and  _622
REMARK  240  A    between atoms: _622  and  _623
REMARK  241  A    between atoms: _628  and  _630
REMARK  242  A    between atoms: _630  and  _631
REMARK  243  A    between atoms: _634  and  _636
REMARK  244  A    between atoms: _636  and  _637
REMARK  245  A    between atoms: _636  and  _639
REMARK  246  A    between atoms: _639  and  _640
REMARK  247  A    between atoms: _640  and  _641
REMARK  248  A    between atoms: _641  and  _642
REMARK  249  A    between atoms: _651  and  _653
REMARK  250  A    between atoms: _653  and  _654
REMARK  251  A    between atoms: _653  and  _656
REMARK  252  A    between atoms: _656  and  _657
REMARK  253  A    between atoms: _660  and  _662
REMARK  254  A    between atoms: _662  and  _663
REMARK  255  A    between atoms: _662  and  _665
REMARK  256  A    between atoms: _665  and  _666
REMARK  257  A    between atoms: _669  and  _671
REMARK  258  A    between atoms: _671  and  _672
REMARK  259  A    between atoms: _671  and  _674
REMARK  260  A    between atoms: _674  and  _675
REMARK                            x       y       z     vdW  Elec       q    Type
REMARK                         _______ _______ _______ _____ _____    ______ ____
ROOT
ATOM      1  CA  HIS A   2      12.029  14.691   8.198  0.00  0.00    +0.155 C 
ENDROOT
BRANCH   1   2
ATOM      2  C   HIS A   2      12.550  15.916   7.496  0.00  0.00    +0.244 C 
ATOM      3  N   PRO A   3      11.772  16.996   7.413  0.00  0.00    -0.272 N 
ATOM      4  CD  PRO A   3      10.394  17.133   7.960  0.00  0.00    +0.094 C 
ATOM      5  CG  PRO A   3       9.807  18.227   7.045  0.00  0.00    +0.024 C 
ATOM      6  CB  PRO A   3      10.983  19.140   6.828  0.00  0.00    +0.031 C 
ATOM      7  CA  PRO A   3      12.146  18.177   6.629  0.00  0.00    +0.152 C 
ATOM      8  O   HIS A   2      13.674  15.892   6.994  0.00  0.00    -0.273 OA
BRANCH   7   9
ATOM      9  C   PRO A   3      13.446  18.814   7.083  0.00  0.00    +0.241 C 
ATOM     10  N   SER A   4      13.755  18.757   8.368  0.00  0.00    -0.296 N 
ATOM     11  H   SER A   4      13.125  18.238   9.012  0.00  0.00    +0.150 HD
ATOM     12  O   PRO A   3      14.188  19.345   6.229  0.00  0.00    -0.273 OA
BRANCH  10  13
ATOM     13  CA  SER A   4      14.953  19.399   8.917  0.00  0.00    +0.166 C 
BRANCH  13  14
ATOM     14  C   SER A   4      16.234  18.869   8.299  0.00  0.00    +0.229 C 
ATOM     15  O   SER A   4      17.215  19.600   8.214  0.00  0.00    -0.286 OA
ENDBRANCH  13  14
BRANCH  13  16
ATOM     16  CB  SER A   4      14.985  19.243  10.447  0.00  0.00    +0.165 C 
BRANCH  16  17
ATOM     17  OG  SER A   4      15.226  17.893  10.827  0.00  0.00    -0.380 OA
ATOM     18  H   SER A   4      14.506  17.317  10.467  0.00  0.00    +0.211 HD
ENDBRANCH  16  17
ENDBRANCH  13  16
ENDBRANCH  10  13
ENDBRANCH   7   9
ENDBRANCH   1   2
BRANCH   1  20
ATOM     19  C   VAL A   1      12.031  12.847   6.551  0.00  0.00    +0.238 C 
ATOM     20  N   HIS A   2      12.512  13.424   7.630  0.00  0.00    -0.297 N 
ATOM     21  H   HIS A   2      13.295  12.947   8.120  0.00  0.00    +0.150 HD
ATOM     22  O   VAL A   1      11.302  13.510   5.817  0.00  0.00    -0.274 OA
BRANCH  19  23
ATOM     23  CA  VAL A   1      12.523  11.458   6.141  0.00  0.00    +0.145 C 
BRANCH  23  24
ATOM     24  CB  VAL A   1      11.354  10.459   6.163  0.00  0.00    +0.025 C 
ATOM     25  CG2 VAL A   1      10.836  10.210   7.564  0.00  0.00    +0.002 C 
ATOM     26  CG1 VAL A   1      11.799   9.131   5.536  0.00  0.00    +0.002 C 
ENDBRANCH  23  24
BRANCH  23  27
ATOM     27  N   VAL A   1      13.636  10.987   6.966  0.00  0.00    -0.238 NA
ATOM     28  H   VAL A   1      13.451  10.361   7.776  0.00  0.00    +0.142 HD
ENDBRANCH  23  27
ENDBRANCH  19  23
ENDBRANCH   1  20
BRANCH   1  29
ATOM     29  CB  HIS A   2      12.516  14.644   9.651  0.00  0.00    +0.076 C 
BRANCH  29  30
ATOM     30  CG  HIS A   2      11.905  15.735  10.479  0.00  0.00    +0.082 A 
ATOM     31  CD2 HIS A   2      10.663  15.765  11.022  0.00  0.00    +0.115 A 
ATOM     32  NE2 HIS A   2      10.562  16.970  11.679  0.00  0.00    -0.221 NA
ATOM     33  CE1 HIS A   2      11.700  17.660  11.499  0.00  0.00    +0.199 A 
ATOM     34  ND1 HIS A   2      12.539  16.933  10.778  0.00  0.00    -0.227 NA
ENDBRANCH  29  30
ENDBRANCH   1  29
TORSDOF 12
REMARK  Name = ../refined-set-2016/1b32/1b32_pocket.pdb
REMARK  260 active torsions:
REMARK  status: ('A' for Active; 'I' for Inactive)
REMARK    1  A    between atoms: _1  and  _3
REMARK    2  A    between atoms: _3  and  _4
REMARK    3  A    between atoms: _3  and  _6
REMARK    4  A    between atoms: _6  and  _7
REMARK    5  A    between atoms: _12  and  _14
REMARK    6  A    between atoms: _14  and  _15
REMARK    7  A    between atoms: _14  and  _17
REMARK    8  A    between atoms: _17  and  _18
REMARK    9  A    between atoms: _20  and  _22
REMARK   10  A    between atoms: _22  and  _23
REMARK   11  A    between atoms: _22  and  _25
REMARK   12  A    between atoms: _25  and  _26
REMARK   13  A    between atoms: _26  and  _27
REMARK   14  A    between atoms: _32  and  _34
REMARK   15  A    between atoms: _34  and  _35
REMARK   16  A    between atoms: _34  and  _37
REMARK   17  A    between atoms: _37  and  _38
REMARK   18  A    between atoms: _41  and  _43
REMARK   19  A    between atoms: _43  and  _44
REMARK   20  A    between atoms: _43  and  _46
REMARK   21  A    between atoms: _46  and  _47
REMARK   22  A    between atoms: _47  and  _48
REMARK   23  A    between atoms: _51  and  _53
REMARK   24  A    between atoms: _53  and  _54
REMARK   25  A    between atoms: _56  and  _58
REMARK   26  A    between atoms: _58  and  _59
REMARK   27  A    between atoms: _58  and  _61
REMARK   28  A    between atoms: _65  and  _66
REMARK   29  A    between atoms: _71  and  _73
REMARK   30  A    between atoms: _73  and  _74
REMARK   31  A    between atoms: _73  and  _76
REMARK   32  A    between atoms: _76  and  _77
REMARK   33  A    between atoms: _77  and  _78
REMARK   34  A    between atoms: _81  and  _83
REMARK   35  A    between atoms: _83  and  _84
REMARK   36  A    between atoms: _83  and  _86
REMARK   37  A    between atoms: _86  and  _87
REMARK   38  A    between atoms: _89  and  _91
REMARK   39  A    between atoms: _91  and  _92
REMARK   40  A    between atoms: _91  and  _94
REMARK   41  A    between atoms: _94  and  _95
REMARK   42  A    between atoms: _100  and  _102
REMARK   43  A    between atoms: _102  and  _103
REMARK   44  A    between atoms: _102  and  _105
REMARK   45  A    between atoms: _105  and  _106
REMARK   46  A    between atoms: _106  and  _107
REMARK   47  A    between atoms: _107  and  _108
REMARK   48  A    between atoms: _118  and  _119
REMARK   49  A    between atoms: _124  and  _126
REMARK   50  A    between atoms: _126  and  _127
REMARK   51  A    between atoms: _126  and  _129
REMARK   52  A    between atoms: _129  and  _130
REMARK   53  A    between atoms: _135  and  _136
REMARK   54  A    between atoms: _138  and  _140
REMARK   55  A    between atoms: _140  and  _141
REMARK   56  A    between atoms: _140  and  _143
REMARK   57  A    between atoms: _143  and  _144
REMARK   58  A    between atoms: _149  and  _150
REMARK   59  A    between atoms: _152  and  _154
REMARK   60  A    between atoms: _154  and  _155
REMARK   61  A    between atoms: _154  and  _157
REMARK   62  A    between atoms: _160  and  _162
REMARK   63  A    between atoms: _162  and  _163
REMARK   64  A    between atoms: _162  and  _165
REMARK   65  A    between atoms: _165  and  _166
REMARK   66  A    between atoms: _172  and  _173
REMARK   67  A    between atoms: _178  and  _180
REMARK   68  A    between atoms: _180  and  _181
REMARK   69  A    between atoms: _180  and  _183
REMARK   70  A    between atoms: _183  and  _184
REMARK   71  A    between atoms: _186  and  _188
REMARK   72  A    between atoms: _188  and  _189
REMARK   73  A    between atoms: _188  and  _191
REMARK   74  A    between atoms: _191  and  _192
REMARK   75  A    between atoms: _197  and  _198
REMARK   76  A    between atoms: _200  and  _202
REMARK   77  A    between atoms: _202  and  _203
REMARK   78  A    between atoms: _202  and  _205
REMARK   79  A    between atoms: _205  and  _206
REMARK   80  A    between atoms: _211  and  _213
REMARK   81  A    between atoms: _213  and  _214
REMARK   82  A    between atoms: _213  and  _216
REMARK   83  A    between atoms: _216  and  _217
REMARK   84  A    between atoms: _222  and  _224
REMARK   85  A    between atoms: _224  and  _225
REMARK   86  A    between atoms: _224  and  _227
REMARK   87  A    between atoms: _227  and  _228
REMARK   88  A    between atoms: _228  and  _229
REMARK   89  A    between atoms: _231  and  _233
REMARK   90  A    between atoms: _233  and  _234
REMARK   91  A    between atoms: _233  and  _236
REMARK   92  A    between atoms: _236  and  _237
REMARK   93  A    between atoms: _242  and  _243
REMARK   94  A    between atoms: _245  and  _247
REMARK   95  A    between atoms: _247  and  _248
REMARK   96  A    between atoms: _247  and  _250
REMARK   97  A    between atoms: _250  and  _251
REMARK   98  A    between atoms: _254  and  _256
REMARK   99  A    between atoms: _256  and  _257
REMARK  100  A    between atoms: _256  and  _259
REMARK  101  A    between atoms: _259  and  _260
REMARK  102  A    between atoms: _260  and  _477
REMARK  103  A    between atoms: _261  and  _263
REMARK  104  A    between atoms: _263  and  _264
REMARK  105  A    between atoms: _263  and  _266
REMARK  106  A    between atoms: _266  and  _267
REMARK  107  A    between atoms: _270  and  _272
REMARK  108  A    between atoms: _272  and  _273
REMARK  109  A    between atoms: _272  and  _275
REMARK  110  A    between atoms: _275  and  _276
REMARK  111  A    between atoms: _281  and  _282
REMARK  112  A    between atoms: _284  and  _286
REMARK  113  A    between atoms: _286  and  _287
REMARK  114  A    between atoms: _286  and  _289
REMARK  115  A    between atoms: _289  and  _290
REMARK  116  A    between atoms: _295  and  _296
REMARK  117  A    between atoms: _298  and  _300
REMARK  118  A    between atoms: _300  and  _301
REMARK  119  A    between atoms: _300  and  _303
REMARK  120  A    between atoms: _303  and  _304
REMARK  121  A    between atoms: _304  and  _305
REMARK  122  A    between atoms: _308  and  _310
REMARK  123  A    between atoms: _310  and  _311
REMARK  124  A    between atoms: _310  and  _313
REMARK  125  A    between atoms: _313  and  _314
REMARK  126  A    between atoms: _319  and  _320
REMARK  127  A    between atoms: _322  and  _324
REMARK  128  A    between atoms: _324  and  _325
REMARK  129  A    between atoms: _324  and  _327
REMARK  130  A    between atoms: _327  and  _328
REMARK  131  A    between atoms: _333  and  _335
REMARK  132  A    between atoms: _335  and  _336
REMARK  133  A    between atoms: _335  and  _338
REMARK  134  A    between atoms: _338  and  _339
REMARK  135  A    between atoms: _342  and  _344
REMARK  136  A    between atoms: _344  and  _345
REMARK  137  A    between atoms: _344  and  _347
REMARK  138  A    between atoms: _347  and  _348
REMARK  139  A    between atoms: _353  and  _355
REMARK  140  A    between atoms: _355  and  _356
REMARK  141  A    between atoms: _355  and  _358
REMARK  142  A    between atoms: _358  and  _359
REMARK  143  A    between atoms: _369  and  _371
REMARK  144  A    between atoms: _371  and  _372
REMARK  145  A    between atoms: _371  and  _374
REMARK  146  A    between atoms: _374  and  _375
REMARK  147  A    between atoms: _381  and  _383
REMARK  148  A    between atoms: _383  and  _384
REMARK  149  A    between atoms: _383  and  _386
REMARK  150  A    between atoms: _386  and  _387
REMARK  151  A    between atoms: _390  and  _392
REMARK  152  A    between atoms: _392  and  _393
REMARK  153  A    between atoms: _392  and  _395
REMARK  154  A    between atoms: _395  and  _396
REMARK  155  A    between atoms: _399  and  _401
REMARK  156  A    between atoms: _401  and  _402
REMARK  157  A    between atoms: _401  and  _404
REMARK  158  A    between atoms: _404  and  _405
REMARK  159  A    between atoms: _405  and  _406
REMARK  160  A    between atoms: _406  and  _407
REMARK  161  A    between atoms: _416  and  _418
REMARK  162  A    between atoms: _418  and  _419
REMARK  163  A    between atoms: _418  and  _421
REMARK  164  A    between atoms: _421  and  _422
REMARK  165  A    between atoms: _427  and  _429
REMARK  166  A    between atoms: _429  and  _430
REMARK  167  A    between atoms: _429  and  _432
REMARK  168  A    between atoms: _432  and  _433
REMARK  169  A    between atoms: _433  and  _434
REMARK  170  A    between atoms: _434  and  _435
REMARK  171  A    between atoms: _444  and  _446
REMARK  172  A    between atoms: _446  and  _447
REMARK  173  A    between atoms: _450  and  _452
REMARK  174  A    between atoms: _452  and  _453
REMARK  175  A    between atoms: _455  and  _457
REMARK  176  A    between atoms: _457  and  _458
REMARK  177  A    between atoms: _457  and  _460
REMARK  178  A    between atoms: _460  and  _461
REMARK  179  A    between atoms: _471  and  _473
REMARK  180  A    between atoms: _473  and  _474
REMARK  181  A    between atoms: _473  and  _476
REMARK  182  A    between atoms: _476  and  _477
REMARK  183  A    between atoms: _478  and  _480
REMARK  184  A    between atoms: _480  and  _481
REMARK  185  A    between atoms: _484  and  _486
REMARK  186  A    between atoms: _486  and  _487
REMARK  187  A    between atoms: _486  and  _489
REMARK  188  A    between atoms: _489  and  _490
REMARK  189  A    between atoms: _493  and  _495
REMARK  190  A    between atoms: _495  and  _496
REMARK  191  A    between atoms: _495  and  _498
REMARK  192  A    between atoms: _498  and  _499
REMARK  193  A    between atoms: _504  and  _505
REMARK  194  A    between atoms: _507  and  _509
REMARK  195  A    between atoms: _509  and  _510
REMARK  196  A    between atoms: _509  and  _512
REMARK  197  A    between atoms: _512  and  _513
REMARK  198  A    between atoms: _515  and  _517
REMARK  199  A    between atoms: _517  and  _518
REMARK  200  A    between atoms: _517  and  _520
REMARK  201  A    between atoms: _520  and  _521
REMARK  202  A    between atoms: _527  and  _529
REMARK  203  A    between atoms: _529  and  _530
REMARK  204  A    between atoms: _529  and  _532
REMARK  205  A    between atoms: _532  and  _533
REMARK  206  A    between atoms: _536  and  _538
REMARK  207  A    between atoms: _538  and  _539
REMARK  208  A    between atoms: _538  and  _541
REMARK  209  A    between atoms: _541  and  _542
REMARK  210  A    between atoms: _544  and  _546
REMARK  211  A    between atoms: _546  and  _547
REMARK  212  A    between atoms: _546  and  _549
REMARK  213  A    between atoms: _549  and  _550
REMARK  214  A    between atoms: _555  and  _557
REMARK  215  A    between atoms: _557  and  _558
REMARK  216  A    between atoms: _557  and  _560
REMARK  217  A    between atoms: _560  and  _561
REMARK  218  A    between atoms: _566  and  _568
REMARK  219  A    between atoms: _568  and  _569
REMARK  220  A    between atoms: _568  and  _571
REMARK  221  A    between atoms: _571  and  _572
REMARK  222  A    between atoms: _575  and  _577
REMARK  223  A    between atoms: _577  and  _578
REMARK  224  A    between atoms: _581  and  _583
REMARK  225  A    between atoms: _583  and  _584
REMARK  226  A    between atoms: _583  and  _586
REMARK  227  A    between atoms: _586  and  _587
REMARK  228  A    between atoms: _592  and  _593
REMARK  229  A    between atoms: _595  and  _597
REMARK  230  A    between atoms: _597  and  _598
REMARK  231  A    between atoms: _597  and  _600
REMARK  232  A    between atoms: _600  and  _601
REMARK  233  A    between atoms: _606  and  _607
REMARK  234  A    between atoms: _609  and  _611
REMARK  235  A    between atoms: _611  and  _612
REMARK  236  A    between atoms: _611  and  _614
REMARK  237  A    between atoms: _617  and  _619
REMARK  238  A    between atoms: _619  and  _620
REMARK  239  A    between atoms: _619  and  _622
REMARK  240  A    between atoms: _622  and  _623
REMARK  241  A    between atoms: _628  and  _630
REMARK  242  A    between atoms: _630  and  _631
REMARK  243  A    between atoms: _634  and  _636
REMARK  244  A    between atoms: _636  and  _637
REMARK  245  A    between atoms: _636  and  _639
REMARK  246  A    between atoms: _639  and  _640
REMARK  247  A    between atoms: _640  and  _641
REMARK  248  A    between atoms: _641  and  _642
REMARK  249  A    between atoms: _651  and  _653
REMARK  250  A    between atoms: _653  and  _654
REMARK  251  A    between atoms: _653  and  _656
REMARK  252  A    between atoms: _656  and  _657
REMARK  253  A    between atoms: _660  and  _662
REMARK  254  A    between atoms: _662  and  _663
REMARK  255  A    between atoms: _662  and  _665
REMARK  256  A    between atoms: _665  and  _666
REMARK  257  A    between atoms: _669  and  _671
REMARK  258  A    between atoms: _671  and  _672
REMARK  259  A    between atoms: _671  and  _674
REMARK  260  A    between atoms: _674  and  _675
REMARK                            x       y       z     vdW  Elec       q    Type
REMARK                         _______ _______ _______ _____ _____    ______ ____
ROOT
ATOM      1  CA  ASN A   2      -6.884  16.473   9.465  0.00  0.00    +0.158 C 
ENDROOT
BRANCH   1   3
ATOM      2  C   TYR A   1      -7.306  18.089   7.725  0.00  0.00    +0.239 C 
ATOM      3  N   ASN A   2      -6.452  17.529   8.570  0.00  0.00    -0.297 N 
ATOM      4  H   ASN A   2      -5.463  17.850   8.591  0.00  0.00    +0.150 HD
ATOM      5  O   TYR A   1      -8.511  17.773   7.662  0.00  0.00    -0.274 OA
BRANCH   2   6
ATOM      6  CA  TYR A   1      -6.811  19.161   6.753  0.00  0.00    +0.149 C 
BRANCH   6   7
ATOM      7  N   TYR A   1      -7.927  19.315   5.802  0.00  0.00    -0.238 NA
ATOM      8  H   TYR A   1      -8.546  20.148   5.859  0.00  0.00    +0.142 HD
ENDBRANCH   6   7
BRANCH   6   9
ATOM      9  CB  TYR A   1      -6.536  20.493   7.428  0.00  0.00    +0.053 C 
BRANCH   9  10
ATOM     10  CG  TYR A   1      -5.371  20.424   8.400  0.00  0.00    -0.020 A 
ATOM     11  CD2 TYR A   1      -5.523  20.686   9.749  0.00  0.00    -0.001 A 
ATOM     12  CE2 TYR A   1      -4.434  20.594  10.610  0.00  0.00    +0.036 A 
ATOM     13  CZ  TYR A   1      -3.202  20.248  10.105  0.00  0.00    +0.134 A 
ATOM     14  CE1 TYR A   1      -3.021  19.986   8.758  0.00  0.00    +0.036 A 
ATOM     15  CD1 TYR A   1      -4.118  20.078   7.912  0.00  0.00    -0.001 A 
BRANCH  13  16
ATOM     16  OH  TYR A   1      -2.124  20.163  10.961  0.00  0.00    -0.506 OA
ATOM     17  HH  TYR A   1      -1.317  19.906  10.449  0.00  0.00    +0.292 HD
ENDBRANCH  13  16
ENDBRANCH   9  10
ENDBRANCH   6   9
ENDBRANCH   2   6
ENDBRANCH   1   3
BRANCH   1  18
ATOM     18  C   ASN A   2      -7.052  16.991  10.890  0.00  0.00    +0.241 C 
ATOM     19  O   ASN A   2      -6.346  16.591  11.805  0.00  0.00    -0.273 OA
ATOM     20  N   ASN A   3      -7.952  17.923  11.025  0.00  0.00    -0.297 N 
ATOM     21  H   ASN A   3      -8.294  18.338  10.135  0.00  0.00    +0.150 HD
BRANCH  20  22
ATOM     22  CA  ASN A   3      -8.550  18.470  12.230  0.00  0.00    +0.158 C 
BRANCH  22  23
ATOM     23  C   ASN A   3     -10.060  18.523  11.873  0.00  0.00    +0.241 C 
ATOM     24  N   MET A   4     -10.938  17.837  12.591  0.00  0.00    -0.298 N 
ATOM     25  H   MET A   4     -10.625  17.312  13.432  0.00  0.00    +0.150 HD
ATOM     26  O   ASN A   3     -10.369  19.134  10.827  0.00  0.00    -0.273 OA
BRANCH  24  27
ATOM     27  CA  MET A   4     -12.353  17.818  12.199  0.00  0.00    +0.138 C 
BRANCH  27  28
ATOM     28  C   MET A   4     -13.211  18.636  13.168  0.00  0.00    +0.227 C 
ATOM     29  O   MET A   4     -12.936  18.677  14.355  0.00  0.00    -0.286 OA
ENDBRANCH  27  28
BRANCH  27  30
ATOM     30  CB  MET A   4     -12.806  16.366  12.149  0.00  0.00    +0.039 C 
BRANCH  30  31
ATOM     31  CG  MET A   4     -12.311  15.548  10.989  0.00  0.00    +0.060 C 
BRANCH  31  32
ATOM     32  SD  MET A   4     -13.146  15.923   9.440  0.00  0.00    -0.139 S 
ATOM     33  CE  MET A   4     -12.022  17.120   8.717  0.00  0.00    +0.069 C 
ENDBRANCH  31  32
ENDBRANCH  30  31
ENDBRANCH  27  30
ENDBRANCH  24  27
ENDBRANCH  22  23
BRANCH  22  34
ATOM     34  CB  ASN A   3      -8.092  19.861  12.586  0.00  0.00    +0.114 C 
BRANCH  34  35
ATOM     35  CG  ASN A   3      -6.891  20.040  13.468  0.00  0.00    +0.222 C 
ATOM     36  OD1 ASN A   3      -6.364  19.129  14.089  0.00  0.00    -0.275 OA
ATOM     37  ND2 ASN A   3      -6.447  21.320  13.546  0.00  0.00    -0.329 N 
ATOM     38 HD21 ASN A   3      -5.632  21.552  14.149  0.00  0.00    +0.145 HD
ATOM     39 HD22 ASN A   3      -6.921  22.069  13.002  0.00  0.00    +0.145 HD
ENDBRANCH  34  35
ENDBRANCH  22  34
ENDBRANCH  20  22
ENDBRANCH   1  18
BRANCH   1  40
ATOM     40  CB  ASN A   2      -5.978  15.259   9.380  0.00  0.00    +0.114 C 
BRANCH  40  41
ATOM     41  CG  ASN A   2      -4.500  15.584   9.520  0.00  0.00    +0.222 C 
ATOM     42  ND2 ASN A   2      -3.732  14.507   9.592  0.00  0.00    -0.329 N 
ATOM     43 HD21 ASN A   2      -2.703  14.609   9.704  0.00  0.00    +0.145 HD
ATOM     44 HD22 ASN A   2      -4.158  13.560   9.537  0.00  0.00    +0.145 HD
ATOM     45  OD1 ASN A   2      -4.113  16.747   9.573  0.00  0.00    -0.275 OA
ENDBRANCH  40  41
ENDBRANCH   1  40
TORSDOF 18
REMARK  Name = ../refined-set-2016/1b32/1b32_pocket.pdb
REMARK  260 active torsions:
REMARK  status: ('A' for Active; 'I' for Inactive)
REMARK    1  A    between atoms: _1  and  _3
REMARK    2  A    between atoms: _3  and  _4
REMARK    3  A    between atoms: _3  and  _6
REMARK    4  A    between atoms: _6  and  _7
REMARK    5  A    between atoms: _12  and  _14
REMARK    6  A    between atoms: _14  and  _15
REMARK    7  A    between atoms: _14  and  _17
REMARK    8  A    between atoms: _17  and  _18
REMARK    9  A    between atoms: _20  and  _22
REMARK   10  A    between atoms: _22  and  _23
REMARK   11  A    between atoms: _22  and  _25
REMARK   12  A    between atoms: _25  and  _26
REMARK   13  A    between atoms: _26  and  _27
REMARK   14  A    between atoms: _32  and  _34
REMARK   15  A    between atoms: _34  and  _35
REMARK   16  A    between atoms: _34  and  _37
REMARK   17  A    between atoms: _37  and  _38
REMARK   18  A    between atoms: _41  and  _43
REMARK   19  A    between atoms: _43  and  _44
REMARK   20  A    between atoms: _43  and  _46
REMARK   21  A    between atoms: _46  and  _47
REMARK   22  A    between atoms: _47  and  _48
REMARK   23  A    between atoms: _51  and  _53
REMARK   24  A    between atoms: _53  and  _54
REMARK   25  A    between atoms: _56  and  _58
REMARK   26  A    between atoms: _58  and  _59
REMARK   27  A    between atoms: _58  and  _61
REMARK   28  A    between atoms: _65  and  _66
REMARK   29  A    between atoms: _71  and  _73
REMARK   30  A    between atoms: _73  and  _74
REMARK   31  A    between atoms: _73  and  _76
REMARK   32  A    between atoms: _76  and  _77
REMARK   33  A    between atoms: _77  and  _78
REMARK   34  A    between atoms: _81  and  _83
REMARK   35  A    between atoms: _83  and  _84
REMARK   36  A    between atoms: _83  and  _86
REMARK   37  A    between atoms: _86  and  _87
REMARK   38  A    between atoms: _89  and  _91
REMARK   39  A    between atoms: _91  and  _92
REMARK   40  A    between atoms: _91  and  _94
REMARK   41  A    between atoms: _94  and  _95
REMARK   42  A    between atoms: _100  and  _102
REMARK   43  A    between atoms: _102  and  _103
REMARK   44  A    between atoms: _102  and  _105
REMARK   45  A    between atoms: _105  and  _106
REMARK   46  A    between atoms: _106  and  _107
REMARK   47  A    between atoms: _107  and  _108
REMARK   48  A    between atoms: _118  and  _119
REMARK   49  A    between atoms: _124  and  _126
REMARK   50  A    between atoms: _126  and  _127
REMARK   51  A    between atoms: _126  and  _129
REMARK   52  A    between atoms: _129  and  _130
REMARK   53  A    between atoms: _135  and  _136
REMARK   54  A    between atoms: _138  and  _140
REMARK   55  A    between atoms: _140  and  _141
REMARK   56  A    between atoms: _140  and  _143
REMARK   57  A    between atoms: _143  and  _144
REMARK   58  A    between atoms: _149  and  _150
REMARK   59  A    between atoms: _152  and  _154
REMARK   60  A    between atoms: _154  and  _155
REMARK   61  A    between atoms: _154  and  _157
REMARK   62  A    between atoms: _160  and  _162
REMARK   63  A    between atoms: _162  and  _163
REMARK   64  A    between atoms: _162  and  _165
REMARK   65  A    between atoms: _165  and  _166
REMARK   66  A    between atoms: _172  and  _173
REMARK   67  A    between atoms: _178  and  _180
REMARK   68  A    between atoms: _180  and  _181
REMARK   69  A    between atoms: _180  and  _183
REMARK   70  A    between atoms: _183  and  _184
REMARK   71  A    between atoms: _186  and  _188
REMARK   72  A    between atoms: _188  and  _189
REMARK   73  A    between atoms: _188  and  _191
REMARK   74  A    between atoms: _191  and  _192
REMARK   75  A    between atoms: _197  and  _198
REMARK   76  A    between atoms: _200  and  _202
REMARK   77  A    between atoms: _202  and  _203
REMARK   78  A    between atoms: _202  and  _205
REMARK   79  A    between atoms: _205  and  _206
REMARK   80  A    between atoms: _211  and  _213
REMARK   81  A    between atoms: _213  and  _214
REMARK   82  A    between atoms: _213  and  _216
REMARK   83  A    between atoms: _216  and  _217
REMARK   84  A    between atoms: _222  and  _224
REMARK   85  A    between atoms: _224  and  _225
REMARK   86  A    between atoms: _224  and  _227
REMARK   87  A    between atoms: _227  and  _228
REMARK   88  A    between atoms: _228  and  _229
REMARK   89  A    between atoms: _231  and  _233
REMARK   90  A    between atoms: _233  and  _234
REMARK   91  A    between atoms: _233  and  _236
REMARK   92  A    between atoms: _236  and  _237
REMARK   93  A    between atoms: _242  and  _243
REMARK   94  A    between atoms: _245  and  _247
REMARK   95  A    between atoms: _247  and  _248
REMARK   96  A    between atoms: _247  and  _250
REMARK   97  A    between atoms: _250  and  _251
REMARK   98  A    between atoms: _254  and  _256
REMARK   99  A    between atoms: _256  and  _257
REMARK  100  A    between atoms: _256  and  _259
REMARK  101  A    between atoms: _259  and  _260
REMARK  102  A    between atoms: _260  and  _477
REMARK  103  A    between atoms: _261  and  _263
REMARK  104  A    between atoms: _263  and  _264
REMARK  105  A    between atoms: _263  and  _266
REMARK  106  A    between atoms: _266  and  _267
REMARK  107  A    between atoms: _270  and  _272
REMARK  108  A    between atoms: _272  and  _273
REMARK  109  A    between atoms: _272  and  _275
REMARK  110  A    between atoms: _275  and  _276
REMARK  111  A    between atoms: _281  and  _282
REMARK  112  A    between atoms: _284  and  _286
REMARK  113  A    between atoms: _286  and  _287
REMARK  114  A    between atoms: _286  and  _289
REMARK  115  A    between atoms: _289  and  _290
REMARK  116  A    between atoms: _295  and  _296
REMARK  117  A    between atoms: _298  and  _300
REMARK  118  A    between atoms: _300  and  _301
REMARK  119  A    between atoms: _300  and  _303
REMARK  120  A    between atoms: _303  and  _304
REMARK  121  A    between atoms: _304  and  _305
REMARK  122  A    between atoms: _308  and  _310
REMARK  123  A    between atoms: _310  and  _311
REMARK  124  A    between atoms: _310  and  _313
REMARK  125  A    between atoms: _313  and  _314
REMARK  126  A    between atoms: _319  and  _320
REMARK  127  A    between atoms: _322  and  _324
REMARK  128  A    between atoms: _324  and  _325
REMARK  129  A    between atoms: _324  and  _327
REMARK  130  A    between atoms: _327  and  _328
REMARK  131  A    between atoms: _333  and  _335
REMARK  132  A    between atoms: _335  and  _336
REMARK  133  A    between atoms: _335  and  _338
REMARK  134  A    between atoms: _338  and  _339
REMARK  135  A    between atoms: _342  and  _344
REMARK  136  A    between atoms: _344  and  _345
REMARK  137  A    between atoms: _344  and  _347
REMARK  138  A    between atoms: _347  and  _348
REMARK  139  A    between atoms: _353  and  _355
REMARK  140  A    between atoms: _355  and  _356
REMARK  141  A    between atoms: _355  and  _358
REMARK  142  A    between atoms: _358  and  _359
REMARK  143  A    between atoms: _369  and  _371
REMARK  144  A    between atoms: _371  and  _372
REMARK  145  A    between atoms: _371  and  _374
REMARK  146  A    between atoms: _374  and  _375
REMARK  147  A    between atoms: _381  and  _383
REMARK  148  A    between atoms: _383  and  _384
REMARK  149  A    between atoms: _383  and  _386
REMARK  150  A    between atoms: _386  and  _387
REMARK  151  A    between atoms: _390  and  _392
REMARK  152  A    between atoms: _392  and  _393
REMARK  153  A    between atoms: _392  and  _395
REMARK  154  A    between atoms: _395  and  _396
REMARK  155  A    between atoms: _399  and  _401
REMARK  156  A    between atoms: _401  and  _402
REMARK  157  A    between atoms: _401  and  _404
REMARK  158  A    between atoms: _404  and  _405
REMARK  159  A    between atoms: _405  and  _406
REMARK  160  A    between atoms: _406  and  _407
REMARK  161  A    between atoms: _416  and  _418
REMARK  162  A    between atoms: _418  and  _419
REMARK  163  A    between atoms: _418  and  _421
REMARK  164  A    between atoms: _421  and  _422
REMARK  165  A    between atoms: _427  and  _429
REMARK  166  A    between atoms: _429  and  _430
REMARK  167  A    between atoms: _429  and  _432
REMARK  168  A    between atoms: _432  and  _433
REMARK  169  A    between atoms: _433  and  _434
REMARK  170  A    between atoms: _434  and  _435
REMARK  171  A    between atoms: _444  and  _446
REMARK  172  A    between atoms: _446  and  _447
REMARK  173  A    between atoms: _450  and  _452
REMARK  174  A    between atoms: _452  and  _453
REMARK  175  A    between atoms: _455  and  _457
REMARK  176  A    between atoms: _457  and  _458
REMARK  177  A    between atoms: _457  and  _460
REMARK  178  A    between atoms: _460  and  _461
REMARK  179  A    between atoms: _471  and  _473
REMARK  180  A    between atoms: _473  and  _474
REMARK  181  A    between atoms: _473  and  _476
REMARK  182  A    between atoms: _476  and  _477
REMARK  183  A    between atoms: _478  and  _480
REMARK  184  A    between atoms: _480  and  _481
REMARK  185  A    between atoms: _484  and  _486
REMARK  186  A    between atoms: _486  and  _487
REMARK  187  A    between atoms: _486  and  _489
REMARK  188  A    between atoms: _489  and  _490
REMARK  189  A    between atoms: _493  and  _495
REMARK  190  A    between atoms: _495  and  _496
REMARK  191  A    between atoms: _495  and  _498
REMARK  192  A    between atoms: _498  and  _499
REMARK  193  A    between atoms: _504  and  _505
REMARK  194  A    between atoms: _507  and  _509
REMARK  195  A    between atoms: _509  and  _510
REMARK  196  A    between atoms: _509  and  _512
REMARK  197  A    between atoms: _512  and  _513
REMARK  198  A    between atoms: _515  and  _517
REMARK  199  A    between atoms: _517  and  _518
REMARK  200  A    between atoms: _517  and  _520
REMARK  201  A    between atoms: _520  and  _521
REMARK  202  A    between atoms: _527  and  _529
REMARK  203  A    between atoms: _529  and  _530
REMARK  204  A    between atoms: _529  and  _532
REMARK  205  A    between atoms: _532  and  _533
REMARK  206  A    between atoms: _536  and  _538
REMARK  207  A    between atoms: _538  and  _539
REMARK  208  A    between atoms: _538  and  _541
REMARK  209  A    between atoms: _541  and  _542
REMARK  210  A    between atoms: _544  and  _546
REMARK  211  A    between atoms: _546  and  _547
REMARK  212  A    between atoms: _546  and  _549
REMARK  213  A    between atoms: _549  and  _550
REMARK  214  A    between atoms: _555  and  _557
REMARK  215  A    between atoms: _557  and  _558
REMARK  216  A    between atoms: _557  and  _560
REMARK  217  A    between atoms: _560  and  _561
REMARK  218  A    between atoms: _566  and  _568
REMARK  219  A    between atoms: _568  and  _569
REMARK  220  A    between atoms: _568  and  _571
REMARK  221  A    between atoms: _571  and  _572
REMARK  222  A    between atoms: _575  and  _577
REMARK  223  A    between atoms: _577  and  _578
REMARK  224  A    between atoms: _581  and  _583
REMARK  225  A    between atoms: _583  and  _584
REMARK  226  A    between atoms: _583  and  _586
REMARK  227  A    between atoms: _586  and  _587
REMARK  228  A    between atoms: _592  and  _593
REMARK  229  A    between atoms: _595  and  _597
REMARK  230  A    between atoms: _597  and  _598
REMARK  231  A    between atoms: _597  and  _600
REMARK  232  A    between atoms: _600  and  _601
REMARK  233  A    between atoms: _606  and  _607
REMARK  234  A    between atoms: _609  and  _611
REMARK  235  A    between atoms: _611  and  _612
REMARK  236  A    between atoms: _611  and  _614
REMARK  237  A    between atoms: _617  and  _619
REMARK  238  A    between atoms: _619  and  _620
REMARK  239  A    between atoms: _619  and  _622
REMARK  240  A    between atoms: _622  and  _623
REMARK  241  A    between atoms: _628  and  _630
REMARK  242  A    between atoms: _630  and  _631
REMARK  243  A    between atoms: _634  and  _636
REMARK  244  A    between atoms: _636  and  _637
REMARK  245  A    between atoms: _636  and  _639
REMARK  246  A    between atoms: _639  and  _640
REMARK  247  A    between atoms: _640  and  _641
REMARK  248  A    between atoms: _641  and  _642
REMARK  249  A    between atoms: _651  and  _653
REMARK  250  A    between atoms: _653  and  _654
REMARK  251  A    between atoms: _653  and  _656
REMARK  252  A    between atoms: _656  and  _657
REMARK  253  A    between atoms: _660  and  _662
REMARK  254  A    between atoms: _662  and  _663
REMARK  255  A    between atoms: _662  and  _665
REMARK  256  A    between atoms: _665  and  _666
REMARK  257  A    between atoms: _669  and  _671
REMARK  258  A    between atoms: _671  and  _672
REMARK  259  A    between atoms: _671  and  _674
REMARK  260  A    between atoms: _674  and  _675
REMARK                            x       y       z     vdW  Elec       q    Type
REMARK                         _______ _______ _______ _____ _____    ______ ____
ROOT
ATOM      1  CA  CYS A   5       3.208  13.989  16.109  0.00  0.00    +0.160 C 
ENDROOT
BRANCH   1   2
ATOM      2  C   CYS A   5       4.600  13.416  15.850  0.00  0.00    +0.242 C 
ATOM      3  N   ALA A   6       4.767  12.112  15.865  0.00  0.00    -0.297 N 
ATOM      4  H   ALA A   6       3.942  11.497  16.016  0.00  0.00    +0.150 HD
ATOM      5  O   CYS A   5       5.533  14.215  15.694  0.00  0.00    -0.273 OA
BRANCH   3   6
ATOM      6  CA  ALA A   6       6.091  11.503  15.673  0.00  0.00    +0.149 C 
ATOM      7  CB  ALA A   6       5.983   9.970  15.591  0.00  0.00    +0.031 C 
BRANCH   6   8
ATOM      8  C   ALA A   6       6.716  11.949  14.360  0.00  0.00    +0.241 C 
ATOM      9  N   ASP A   7       8.050  12.070  14.376  0.00  0.00    -0.297 N 
ATOM     10  H   ASP A   7       8.563  11.950  15.273  0.00  0.00    +0.150 HD
ATOM     11  O   ALA A   6       6.041  12.201  13.356  0.00  0.00    -0.273 OA
BRANCH   9  12
ATOM     12  CA  ASP A   7       8.801  12.369  13.151  0.00  0.00    +0.160 C 
BRANCH  12  13
ATOM     13  C   ASP A   7       9.389  11.080  12.595  0.00  0.00    +0.241 C 
ATOM     14  N   TYR A   8       9.565  10.121  13.485  0.00  0.00    -0.298 N 
ATOM     15  H   TYR A   8       9.380  10.326  14.488  0.00  0.00    +0.150 HD
ATOM     16  O   ASP A   7       9.652  10.947  11.378  0.00  0.00    -0.273 OA
BRANCH  14  17
ATOM     17  CA  TYR A   8      10.014   8.770  13.106  0.00  0.00    +0.141 C 
BRANCH  17  18
ATOM     18  C   TYR A   8       9.328   7.826  14.094  0.00  0.00    +0.227 C 
ATOM     19  O   TYR A   8       9.064   8.272  15.227  0.00  0.00    -0.286 OA
ENDBRANCH  17  18
BRANCH  17  20
ATOM     20  CB  TYR A   8      11.524   8.626  13.080  0.00  0.00    +0.054 C 
BRANCH  20  21
ATOM     21  CG  TYR A   8      12.249   8.972  14.363  0.00  0.00    -0.020 A 
ATOM     22  CD2 TYR A   8      12.624   8.030  15.311  0.00  0.00    -0.001 A 
ATOM     23  CE2 TYR A   8      13.285   8.395  16.482  0.00  0.00    +0.036 A 
ATOM     24  CZ  TYR A   8      13.611   9.718  16.669  0.00  0.00    +0.134 A 
ATOM     25  CE1 TYR A   8      13.235  10.675  15.755  0.00  0.00    +0.036 A 
ATOM     26  CD1 TYR A   8      12.568  10.305  14.603  0.00  0.00    -0.001 A 
BRANCH  24  27
ATOM     27  OH  TYR A   8      14.289  10.129  17.800  0.00  0.00    -0.506 OA
ATOM     28  HH  TYR A   8      13.754   9.907  18.603  0.00  0.00    +0.292 HD
ENDBRANCH  24  27
ENDBRANCH  20  21
ENDBRANCH  17  20
ENDBRANCH  14  17
ENDBRANCH  12  13
BRANCH  12  29
ATOM     29  CB  ASP A   7       9.971  13.321  13.476  0.00  0.00    +0.143 C 
BRANCH  29  30
ATOM     30  CG  ASP A   7       9.397  14.654  13.960  0.00  0.00    +0.367 C 
ATOM     31  OD2 ASP A   7       9.938  15.252  14.889  0.00  0.00    -0.246 OA
ATOM     32  OD1 ASP A   7       8.378  15.136  13.393  0.00  0.00    -0.246 OA
ENDBRANCH  29  30
ENDBRANCH  12  29
ENDBRANCH   9  12
ENDBRANCH   6   8
ENDBRANCH   3   6
ENDBRANCH   1   2
BRANCH   1  33
ATOM     33  N   CYS A   5       3.284  15.148  16.974  0.00  0.00    -0.296 N 
ATOM     34  C   TRP A   4       2.827  15.142  18.226  0.00  0.00    +0.241 C 
ATOM     35  O   TRP A   4       2.142  14.234  18.709  0.00  0.00    -0.273 OA
ATOM     36  H   CYS A   5       3.712  16.020  16.603  0.00  0.00    +0.150 HD
BRANCH  34  37
ATOM     37  CA  TRP A   4       3.118  16.389  19.060  0.00  0.00    +0.153 C 
BRANCH  37  38
ATOM     38  N   TRP A   4       1.845  16.803  19.656  0.00  0.00    -0.297 N 
ATOM     39  H   TRP A   4       1.304  16.157  20.266  0.00  0.00    +0.150 HD
ATOM     40  C   GLY A   3       1.403  18.025  19.394  0.00  0.00    +0.243 C 
ATOM     41  O   GLY A   3       2.026  18.917  18.802  0.00  0.00    -0.273 OA
BRANCH  40  42
ATOM     42  CA  GLY A   3       0.019  18.360  19.951  0.00  0.00    +0.176 C 
BRANCH  42  43
ATOM     43  N   GLY A   3       0.103  19.622  20.653  0.00  0.00    -0.295 N 
ATOM     44  C   ALA A   2      -0.732  19.917  21.651  0.00  0.00    +0.241 C 
ATOM     45  O   ALA A   2      -1.671  19.168  21.927  0.00  0.00    -0.273 OA
ATOM     46  H   GLY A   3       0.829  20.313  20.374  0.00  0.00    +0.150 HD
BRANCH  44  47
ATOM     47  CA  ALA A   2      -0.478  21.251  22.313  0.00  0.00    +0.149 C 
ATOM     48  CB  ALA A   2       0.620  21.044  23.356  0.00  0.00    +0.031 C 
BRANCH  47  49
ATOM     49  N   ALA A   2      -1.659  21.767  22.985  0.00  0.00    -0.297 N 
ATOM     50  H   ALA A   2      -2.370  21.108  23.362  0.00  0.00    +0.150 HD
ATOM     51  C   ARG A   1      -1.834  23.078  23.119  0.00  0.00    +0.238 C 
ATOM     52  O   ARG A   1      -0.996  23.883  22.694  0.00  0.00    -0.274 OA
BRANCH  51  53
ATOM     53  CA  ARG A   1      -3.053  23.562  23.898  0.00  0.00    +0.145 C 
BRANCH  53  54
ATOM     54  N   ARG A   1      -2.566  24.746  24.615  0.00  0.00    -0.238 NA
ATOM     55  H   ARG A   1      -2.991  25.672  24.405  0.00  0.00    +0.142 HD
ENDBRANCH  53  54
BRANCH  53  56
ATOM     56  CB  ARG A   1      -4.209  24.100  23.086  0.00  0.00    +0.030 C 
BRANCH  56  57
ATOM     57  CG  ARG A   1      -4.900  23.231  22.080  0.00  0.00    +0.045 C 
BRANCH  57  58
ATOM     58  CD  ARG A   1      -4.211  23.558  20.719  0.00  0.00    +0.174 C 
BRANCH  58  59
ATOM     59  NE  ARG A   1      -3.889  22.214  20.293  0.00  0.00    -0.265 N 
ATOM     60  HE  ARG A   1      -4.354  21.439  20.808  0.00  0.00    +0.259 HD
ATOM     61  CZ  ARG A   1      -3.061  21.864  19.312  0.00  0.00    +0.342 C 
ATOM     62  NH2 ARG A   1      -2.904  20.542  19.203  0.00  0.00    -0.292 N 
ATOM     63 HH21 ARG A   1      -3.407  19.903  19.851  0.00  0.00    +0.255 HD
ATOM     64 HH22 ARG A   1      -2.279  20.151  18.470  0.00  0.00    +0.255 HD
ATOM     65  NH1 ARG A   1      -2.458  22.726  18.512  0.00  0.00    -0.292 N 
ATOM     66 HH11 ARG A   1      -2.620  23.746  18.631  0.00  0.00    +0.255 HD
ATOM     67 HH12 ARG A   1      -1.822  22.384  17.764  0.00  0.00    +0.255 HD
ENDBRANCH  58  59
ENDBRANCH  57  58
ENDBRANCH  56  57
ENDBRANCH  53  56
ENDBRANCH  51  53
ENDBRANCH  47  49
ENDBRANCH  44  47
ENDBRANCH  42  43
ENDBRANCH  40  42
ENDBRANCH  37  38
BRANCH  37  68
ATOM     68  CB  TRP A   4       4.208  16.136  20.093  0.00  0.00    +0.057 C 
BRANCH  68  69
ATOM     69  CG  TRP A   4       5.563  15.802  19.468  0.00  0.00    -0.002 A 
ATOM     70  CD1 TRP A   4       6.163  14.599  19.357  0.00  0.00    +0.068 A 
ATOM     71  NE1 TRP A   4       7.411  14.731  18.754  0.00  0.00    -0.352 N 
ATOM     72  HE1 TRP A   4       8.078  13.961  18.543  0.00  0.00    +0.166 HD
ATOM     73  CE2 TRP A   4       7.599  16.068  18.488  0.00  0.00    +0.056 A 
ATOM     74  CZ2 TRP A   4       8.680  16.711  17.888  0.00  0.00    +0.017 A 
ATOM     75  CH2 TRP A   4       8.611  18.082  17.791  0.00  0.00    +0.001 A 
ATOM     76  CZ3 TRP A   4       7.487  18.820  18.212  0.00  0.00    +0.000 A 
ATOM     77  CE3 TRP A   4       6.401  18.169  18.805  0.00  0.00    +0.001 A 
ATOM     78  CD2 TRP A   4       6.463  16.771  18.925  0.00  0.00    +0.013 A 
ENDBRANCH  68  69
ENDBRANCH  37  68
ENDBRANCH  34  37
ENDBRANCH   1  33
BRANCH   1  79
ATOM     79  CB  CYS A   5       2.645  14.331  14.724  0.00  0.00    +0.098 C 
BRANCH  79  80
ATOM     80  SG  CYS A   5       0.896  14.812  14.841  0.00  0.00    -0.080 S 
BRANCH  80  81
ATOM     81  SG  GLY A   3      -0.067  13.042  15.164  0.00  0.00    -0.080 S 
BRANCH  81  82
ATOM     82  CB  GLY A   3      -0.548  13.030  16.889  0.00  0.00    +0.098 C 
BRANCH  82  83
ATOM     83  CA  GLY A   3       0.182  12.054  17.820  0.00  0.00    +0.160 C 
BRANCH  83  84
ATOM     84  C   GLY A   3      -0.551  12.078  19.168  0.00  0.00    +0.242 C 
ATOM     85  N   TRP A   4      -0.113  12.966  20.036  0.00  0.00    -0.295 N 
ATOM     86  H   TRP A   4       0.688  13.583  19.794  0.00  0.00    +0.150 HD
ATOM     87  O   GLY A   3      -1.542  11.332  19.307  0.00  0.00    -0.273 OA
BRANCH  85  88
ATOM     88  CA  TRP A   4      -0.758  13.078  21.336  0.00  0.00    +0.176 C 
BRANCH  88  89
ATOM     89  C   TRP A   4      -1.264  14.494  21.524  0.00  0.00    +0.243 C 
ATOM     90  N   CYS A   5      -2.547  14.647  21.905  0.00  0.00    -0.297 N 
ATOM     91  H   CYS A   5      -3.159  13.809  21.980  0.00  0.00    +0.150 HD
ATOM     92  O   TRP A   4      -0.510  15.425  21.282  0.00  0.00    -0.273 OA
BRANCH  90  93
ATOM     93  CA  CYS A   5      -3.100  15.970  22.217  0.00  0.00    +0.153 C 
BRANCH  93  94
ATOM     94  C   CYS A   5      -2.959  16.142  23.737  0.00  0.00    +0.241 C 
ATOM     95  O   CYS A   5      -3.249  15.244  24.546  0.00  0.00    -0.273 OA
ATOM     96  N   ALA A   6      -2.401  17.272  24.147  0.00  0.00    -0.298 N 
ATOM     97  H   ALA A   6      -2.116  17.988  23.449  0.00  0.00    +0.150 HD
BRANCH  96  98
ATOM     98  CA  ALA A   6      -2.184  17.520  25.562  0.00  0.00    +0.141 C 
BRANCH  98  99
ATOM     99  C   ALA A   6      -2.223  19.009  25.861  0.00  0.00    +0.227 C 
ATOM    100  O   ALA A   6      -2.182  19.797  24.927  0.00  0.00    -0.286 OA
ENDBRANCH  98  99
BRANCH  98 101
ATOM    101  CB  ALA A   6      -0.836  16.943  25.985  0.00  0.00    +0.054 C 
BRANCH 101 102
ATOM    102  CG  ALA A   6       0.417  17.436  25.301  0.00  0.00    -0.020 A 
ATOM    103  CD2 ALA A   6       1.292  18.294  25.976  0.00  0.00    -0.001 A 
ATOM    104  CE2 ALA A   6       2.477  18.705  25.400  0.00  0.00    +0.036 A 
ATOM    105  CZ  ALA A   6       2.772  18.320  24.104  0.00  0.00    +0.134 A 
ATOM    106  CE1 ALA A   6       1.894  17.516  23.396  0.00  0.00    +0.036 A 
ATOM    107  CD1 ALA A   6       0.739  17.077  23.995  0.00  0.00    -0.001 A 
BRANCH 105 108
ATOM    108  OH  ALA A   6       3.925  18.751  23.481  0.00  0.00    -0.506 OA
ATOM    109  HH  ALA A   6       4.712  18.445  23.998  0.00  0.00    +0.292 HD
ENDBRANCH 105 108
ENDBRANCH 101 102
ENDBRANCH  98 101
ENDBRANCH  96  98
ENDBRANCH  93  94
BRANCH  93 110
ATOM    110  CB  CYS A   5      -4.580  16.002  21.802  0.00  0.00    +0.055 C 
BRANCH 110 111
ATOM    111  CG  CYS A   5      -5.249  17.368  21.791  0.00  0.00    -0.020 A 
ATOM    112  CD2 CYS A   5      -5.507  18.112  22.940  0.00  0.00    -0.001 A 
ATOM    113  CE2 CYS A   5      -6.137  19.356  22.861  0.00  0.00    +0.036 A 
ATOM    114  CZ  CYS A   5      -6.543  19.827  21.619  0.00  0.00    +0.134 A 
ATOM    115  CE1 CYS A   5      -6.311  19.094  20.474  0.00  0.00    +0.036 A 
ATOM    116  CD1 CYS A   5      -5.680  17.859  20.566  0.00  0.00    -0.001 A 
BRANCH 114 117
ATOM    117  OH  CYS A   5      -7.171  21.044  21.450  0.00  0.00    -0.506 OA
ATOM    118  HH  CYS A   5      -7.286  21.480  22.331  0.00  0.00    +0.292 HD
ENDBRANCH 114 117
ENDBRANCH 110 111
ENDBRANCH  93 110
ENDBRANCH  90  93
ENDBRANCH  88  89
BRANCH  88 119
ATOM    119  CB  TRP A   4       0.206  12.673  22.469  0.00  0.00    +0.137 C 
ATOM    120  CG2 TRP A   4      -0.504  12.780  23.836  0.00  0.00    +0.034 C 
BRANCH 119 121
ATOM    121  OG1 TRP A   4       0.582  11.315  22.285  0.00  0.00    -0.382 OA
ATOM    122  HG1 TRP A   4       1.202  11.045  23.008  0.00  0.00    +0.210 HD
ENDBRANCH 119 121
ENDBRANCH  88 119
ENDBRANCH  85  88
ENDBRANCH  83  84
BRANCH  83 124
ATOM    123  C   ALA A   2       1.242  10.174  16.691  0.00  0.00    +0.241 C 
ATOM    124  N   GLY A   3       0.162  10.697  17.277  0.00  0.00    -0.296 N 
ATOM    125  H   GLY A   3      -0.707  10.130  17.348  0.00  0.00    +0.150 HD
ATOM    126  O   ALA A   2       2.347  10.744  16.590  0.00  0.00    -0.273 OA
BRANCH 123 127
ATOM    127  CA  ALA A   2       1.059   8.753  16.196  0.00  0.00    +0.149 C 
BRANCH 127 130
ATOM    128  C   ARG A   1      -1.168   8.579  15.243  0.00  0.00    +0.239 C 
ATOM    129  O   ARG A   1      -1.704   8.534  16.359  0.00  0.00    -0.274 OA
ATOM    130  N   ALA A   2       0.150   8.678  15.053  0.00  0.00    -0.297 N 
ATOM    131  H   ALA A   2       0.532   8.702  14.086  0.00  0.00    +0.150 HD
BRANCH 128 132
ATOM    132  CA  ARG A   1      -2.025   8.445  14.011  0.00  0.00    +0.149 C 
BRANCH 132 133
ATOM    133  N   ARG A   1      -2.868   7.243  14.130  0.00  0.00    -0.238 NA
ATOM    134  H   ARG A   1      -3.138   6.909  15.077  0.00  0.00    +0.142 HD
ENDBRANCH 132 133
BRANCH 132 135
ATOM    135  CB  ARG A   1      -2.943   9.659  13.886  0.00  0.00    +0.053 C 
BRANCH 135 136
ATOM    136  CG  ARG A   1      -2.397  10.933  13.272  0.00  0.00    -0.020 A 
ATOM    137  CD2 ARG A   1      -3.128  12.106  13.433  0.00  0.00    -0.001 A 
ATOM    138  CE2 ARG A   1      -2.739  13.327  12.889  0.00  0.00    +0.036 A 
ATOM    139  CZ  ARG A   1      -1.588  13.347  12.135  0.00  0.00    +0.134 A 
ATOM    140  CE1 ARG A   1      -0.833  12.210  11.966  0.00  0.00    +0.036 A 
ATOM    141  CD1 ARG A   1      -1.218  10.992  12.528  0.00  0.00    -0.001 A 
BRANCH 139 142
ATOM    142  OH  ARG A   1      -1.173  14.537  11.560  0.00  0.00    -0.506 OA
ATOM    143  HH  ARG A   1      -0.336  14.384  11.055  0.00  0.00    +0.292 HD
ENDBRANCH 139 142
ENDBRANCH 135 136
ENDBRANCH 132 135
ENDBRANCH 128 132
ENDBRANCH 127 130
BRANCH 127 144
ATOM    144  CB  ALA A   2       2.419   8.135  15.790  0.00  0.00    +0.029 C 
BRANCH 144 145
ATOM    145  CG  ALA A   2       2.374   6.609  15.704  0.00  0.00    +0.002 C 
ATOM    146  CD2 ALA A   2       2.115   6.006  17.081  0.00  0.00    +0.000 C 
ATOM    147  CD1 ALA A   2       3.671   6.066  15.108  0.00  0.00    +0.000 C 
ENDBRANCH 144 145
ENDBRANCH 127 144
ENDBRANCH 123 127
ENDBRANCH  83 124
ENDBRANCH  82  83
ENDBRANCH  81  82
ENDBRANCH  80  81
ENDBRANCH  79  80
ENDBRANCH   1  79
TORSDOF 57
REMARK  Name = ../refined-set-2016/1b32/1b32_pocket.pdb
REMARK  260 active torsions:
REMARK  status: ('A' for Active; 'I' for Inactive)
REMARK    1  A    between atoms: _1  and  _3
REMARK    2  A    between atoms: _3  and  _4
REMARK    3  A    between atoms: _3  and  _6
REMARK    4  A    between atoms: _6  and  _7
REMARK    5  A    between atoms: _12  and  _14
REMARK    6  A    between atoms: _14  and  _15
REMARK    7  A    between atoms: _14  and  _17
REMARK    8  A    between atoms: _17  and  _18
REMARK    9  A    between atoms: _20  and  _22
REMARK   10  A    between atoms: _22  and  _23
REMARK   11  A    between atoms: _22  and  _25
REMARK   12  A    between atoms: _25  and  _26
REMARK   13  A    between atoms: _26  and  _27
REMARK   14  A    between atoms: _32  and  _34
REMARK   15  A    between atoms: _34  and  _35
REMARK   16  A    between atoms: _34  and  _37
REMARK   17  A    between atoms: _37  and  _38
REMARK   18  A    between atoms: _41  and  _43
REMARK   19  A    between atoms: _43  and  _44
REMARK   20  A    between atoms: _43  and  _46
REMARK   21  A    between atoms: _46  and  _47
REMARK   22  A    between atoms: _47  and  _48
REMARK   23  A    between atoms: _51  and  _53
REMARK   24  A    between atoms: _53  and  _54
REMARK   25  A    between atoms: _56  and  _58
REMARK   26  A    between atoms: _58  and  _59
REMARK   27  A    between atoms: _58  and  _61
REMARK   28  A    between atoms: _65  and  _66
REMARK   29  A    between atoms: _71  and  _73
REMARK   30  A    between atoms: _73  and  _74
REMARK   31  A    between atoms: _73  and  _76
REMARK   32  A    between atoms: _76  and  _77
REMARK   33  A    between atoms: _77  and  _78
REMARK   34  A    between atoms: _81  and  _83
REMARK   35  A    between atoms: _83  and  _84
REMARK   36  A    between atoms: _83  and  _86
REMARK   37  A    between atoms: _86  and  _87
REMARK   38  A    between atoms: _89  and  _91
REMARK   39  A    between atoms: _91  and  _92
REMARK   40  A    between atoms: _91  and  _94
REMARK   41  A    between atoms: _94  and  _95
REMARK   42  A    between atoms: _100  and  _102
REMARK   43  A    between atoms: _102  and  _103
REMARK   44  A    between atoms: _102  and  _105
REMARK   45  A    between atoms: _105  and  _106
REMARK   46  A    between atoms: _106  and  _107
REMARK   47  A    between atoms: _107  and  _108
REMARK   48  A    between atoms: _118  and  _119
REMARK   49  A    between atoms: _124  and  _126
REMARK   50  A    between atoms: _126  and  _127
REMARK   51  A    between atoms: _126  and  _129
REMARK   52  A    between atoms: _129  and  _130
REMARK   53  A    between atoms: _135  and  _136
REMARK   54  A    between atoms: _138  and  _140
REMARK   55  A    between atoms: _140  and  _141
REMARK   56  A    between atoms: _140  and  _143
REMARK   57  A    between atoms: _143  and  _144
REMARK   58  A    between atoms: _149  and  _150
REMARK   59  A    between atoms: _152  and  _154
REMARK   60  A    between atoms: _154  and  _155
REMARK   61  A    between atoms: _154  and  _157
REMARK   62  A    between atoms: _160  and  _162
REMARK   63  A    between atoms: _162  and  _163
REMARK   64  A    between atoms: _162  and  _165
REMARK   65  A    between atoms: _165  and  _166
REMARK   66  A    between atoms: _172  and  _173
REMARK   67  A    between atoms: _178  and  _180
REMARK   68  A    between atoms: _180  and  _181
REMARK   69  A    between atoms: _180  and  _183
REMARK   70  A    between atoms: _183  and  _184
REMARK   71  A    between atoms: _186  and  _188
REMARK   72  A    between atoms: _188  and  _189
REMARK   73  A    between atoms: _188  and  _191
REMARK   74  A    between atoms: _191  and  _192
REMARK   75  A    between atoms: _197  and  _198
REMARK   76  A    between atoms: _200  and  _202
REMARK   77  A    between atoms: _202  and  _203
REMARK   78  A    between atoms: _202  and  _205
REMARK   79  A    between atoms: _205  and  _206
REMARK   80  A    between atoms: _211  and  _213
REMARK   81  A    between atoms: _213  and  _214
REMARK   82  A    between atoms: _213  and  _216
REMARK   83  A    between atoms: _216  and  _217
REMARK   84  A    between atoms: _222  and  _224
REMARK   85  A    between atoms: _224  and  _225
REMARK   86  A    between atoms: _224  and  _227
REMARK   87  A    between atoms: _227  and  _228
REMARK   88  A    between atoms: _228  and  _229
REMARK   89  A    between atoms: _231  and  _233
REMARK   90  A    between atoms: _233  and  _234
REMARK   91  A    between atoms: _233  and  _236
REMARK   92  A    between atoms: _236  and  _237
REMARK   93  A    between atoms: _242  and  _243
REMARK   94  A    between atoms: _245  and  _247
REMARK   95  A    between atoms: _247  and  _248
REMARK   96  A    between atoms: _247  and  _250
REMARK   97  A    between atoms: _250  and  _251
REMARK   98  A    between atoms: _254  and  _256
REMARK   99  A    between atoms: _256  and  _257
REMARK  100  A    between atoms: _256  and  _259
REMARK  101  A    between atoms: _259  and  _260
REMARK  102  A    between atoms: _260  and  _477
REMARK  103  A    between atoms: _261  and  _263
REMARK  104  A    between atoms: _263  and  _264
REMARK  105  A    between atoms: _263  and  _266
REMARK  106  A    between atoms: _266  and  _267
REMARK  107  A    between atoms: _270  and  _272
REMARK  108  A    between atoms: _272  and  _273
REMARK  109  A    between atoms: _272  and  _275
REMARK  110  A    between atoms: _275  and  _276
REMARK  111  A    between atoms: _281  and  _282
REMARK  112  A    between atoms: _284  and  _286
REMARK  113  A    between atoms: _286  and  _287
REMARK  114  A    between atoms: _286  and  _289
REMARK  115  A    between atoms: _289  and  _290
REMARK  116  A    between atoms: _295  and  _296
REMARK  117  A    between atoms: _298  and  _300
REMARK  118  A    between atoms: _300  and  _301
REMARK  119  A    between atoms: _300  and  _303
REMARK  120  A    between atoms: _303  and  _304
REMARK  121  A    between atoms: _304  and  _305
REMARK  122  A    between atoms: _308  and  _310
REMARK  123  A    between atoms: _310  and  _311
REMARK  124  A    between atoms: _310  and  _313
REMARK  125  A    between atoms: _313  and  _314
REMARK  126  A    between atoms: _319  and  _320
REMARK  127  A    between atoms: _322  and  _324
REMARK  128  A    between atoms: _324  and  _325
REMARK  129  A    between atoms: _324  and  _327
REMARK  130  A    between atoms: _327  and  _328
REMARK  131  A    between atoms: _333  and  _335
REMARK  132  A    between atoms: _335  and  _336
REMARK  133  A    between atoms: _335  and  _338
REMARK  134  A    between atoms: _338  and  _339
REMARK  135  A    between atoms: _342  and  _344
REMARK  136  A    between atoms: _344  and  _345
REMARK  137  A    between atoms: _344  and  _347
REMARK  138  A    between atoms: _347  and  _348
REMARK  139  A    between atoms: _353  and  _355
REMARK  140  A    between atoms: _355  and  _356
REMARK  141  A    between atoms: _355  and  _358
REMARK  142  A    between atoms: _358  and  _359
REMARK  143  A    between atoms: _369  and  _371
REMARK  144  A    between atoms: _371  and  _372
REMARK  145  A    between atoms: _371  and  _374
REMARK  146  A    between atoms: _374  and  _375
REMARK  147  A    between atoms: _381  and  _383
REMARK  148  A    between atoms: _383  and  _384
REMARK  149  A    between atoms: _383  and  _386
REMARK  150  A    between atoms: _386  and  _387
REMARK  151  A    between atoms: _390  and  _392
REMARK  152  A    between atoms: _392  and  _393
REMARK  153  A    between atoms: _392  and  _395
REMARK  154  A    between atoms: _395  and  _396
REMARK  155  A    between atoms: _399  and  _401
REMARK  156  A    between atoms: _401  and  _402
REMARK  157  A    between atoms: _401  and  _404
REMARK  158  A    between atoms: _404  and  _405
REMARK  159  A    between atoms: _405  and  _406
REMARK  160  A    between atoms: _406  and  _407
REMARK  161  A    between atoms: _416  and  _418
REMARK  162  A    between atoms: _418  and  _419
REMARK  163  A    between atoms: _418  and  _421
REMARK  164  A    between atoms: _421  and  _422
REMARK  165  A    between atoms: _427  and  _429
REMARK  166  A    between atoms: _429  and  _430
REMARK  167  A    between atoms: _429  and  _432
REMARK  168  A    between atoms: _432  and  _433
REMARK  169  A    between atoms: _433  and  _434
REMARK  170  A    between atoms: _434  and  _435
REMARK  171  A    between atoms: _444  and  _446
REMARK  172  A    between atoms: _446  and  _447
REMARK  173  A    between atoms: _450  and  _452
REMARK  174  A    between atoms: _452  and  _453
REMARK  175  A    between atoms: _455  and  _457
REMARK  176  A    between atoms: _457  and  _458
REMARK  177  A    between atoms: _457  and  _460
REMARK  178  A    between atoms: _460  and  _461
REMARK  179  A    between atoms: _471  and  _473
REMARK  180  A    between atoms: _473  and  _474
REMARK  181  A    between atoms: _473  and  _476
REMARK  182  A    between atoms: _476  and  _477
REMARK  183  A    between atoms: _478  and  _480
REMARK  184  A    between atoms: _480  and  _481
REMARK  185  A    between atoms: _484  and  _486
REMARK  186  A    between atoms: _486  and  _487
REMARK  187  A    between atoms: _486  and  _489
REMARK  188  A    between atoms: _489  and  _490
REMARK  189  A    between atoms: _493  and  _495
REMARK  190  A    between atoms: _495  and  _496
REMARK  191  A    between atoms: _495  and  _498
REMARK  192  A    between atoms: _498  and  _499
REMARK  193  A    between atoms: _504  and  _505
REMARK  194  A    between atoms: _507  and  _509
REMARK  195  A    between atoms: _509  and  _510
REMARK  196  A    between atoms: _509  and  _512
REMARK  197  A    between atoms: _512  and  _513
REMARK  198  A    between atoms: _515  and  _517
REMARK  199  A    between atoms: _517  and  _518
REMARK  200  A    between atoms: _517  and  _520
REMARK  201  A    between atoms: _520  and  _521
REMARK  202  A    between atoms: _527  and  _529
REMARK  203  A    between atoms: _529  and  _530
REMARK  204  A    between atoms: _529  and  _532
REMARK  205  A    between atoms: _532  and  _533
REMARK  206  A    between atoms: _536  and  _538
REMARK  207  A    between atoms: _538  and  _539
REMARK  208  A    between atoms: _538  and  _541
REMARK  209  A    between atoms: _541  and  _542
REMARK  210  A    between atoms: _544  and  _546
REMARK  211  A    between atoms: _546  and  _547
REMARK  212  A    between atoms: _546  and  _549
REMARK  213  A    between atoms: _549  and  _550
REMARK  214  A    between atoms: _555  and  _557
REMARK  215  A    between atoms: _557  and  _558
REMARK  216  A    between atoms: _557  and  _560
REMARK  217  A    between atoms: _560  and  _561
REMARK  218  A    between atoms: _566  and  _568
REMARK  219  A    between atoms: _568  and  _569
REMARK  220  A    between atoms: _568  and  _571
REMARK  221  A    between atoms: _571  and  _572
REMARK  222  A    between atoms: _575  and  _577
REMARK  223  A    between atoms: _577  and  _578
REMARK  224  A    between atoms: _581  and  _583
REMARK  225  A    between atoms: _583  and  _584
REMARK  226  A    between atoms: _583  and  _586
REMARK  227  A    between atoms: _586  and  _587
REMARK  228  A    between atoms: _592  and  _593
REMARK  229  A    between atoms: _595  and  _597
REMARK  230  A    between atoms: _597  and  _598
REMARK  231  A    between atoms: _597  and  _600
REMARK  232  A    between atoms: _600  and  _601
REMARK  233  A    between atoms: _606  and  _607
REMARK  234  A    between atoms: _609  and  _611
REMARK  235  A    between atoms: _611  and  _612
REMARK  236  A    between atoms: _611  and  _614
REMARK  237  A    between atoms: _617  and  _619
REMARK  238  A    between atoms: _619  and  _620
REMARK  239  A    between atoms: _619  and  _622
REMARK  240  A    between atoms: _622  and  _623
REMARK  241  A    between atoms: _628  and  _630
REMARK  242  A    between atoms: _630  and  _631
REMARK  243  A    between atoms: _634  and  _636
REMARK  244  A    between atoms: _636  and  _637
REMARK  245  A    between atoms: _636  and  _639
REMARK  246  A    between atoms: _639  and  _640
REMARK  247  A    between atoms: _640  and  _641
REMARK  248  A    between atoms: _641  and  _642
REMARK  249  A    between atoms: _651  and  _653
REMARK  250  A    between atoms: _653  and  _654
REMARK  251  A    between atoms: _653  and  _656
REMARK  252  A    between atoms: _656  and  _657
REMARK  253  A    between atoms: _660  and  _662
REMARK  254  A    between atoms: _662  and  _663
REMARK  255  A    between atoms: _662  and  _665
REMARK  256  A    between atoms: _665  and  _666
REMARK  257  A    between atoms: _669  and  _671
REMARK  258  A    between atoms: _671  and  _672
REMARK  259  A    between atoms: _671  and  _674
REMARK  260  A    between atoms: _674  and  _675
REMARK                            x       y       z     vdW  Elec       q    Type
REMARK                         _______ _______ _______ _____ _____    ______ ____
ROOT
ATOM      1  CA  GLU A   1       1.497  21.925  27.714  0.00  0.00    +0.134 C 
ENDROOT
BRANCH   1   2
ATOM      2  N   GLU A   1       0.115  21.658  27.367  0.00  0.00    -0.239 NA
ATOM      3  H   GLU A   1      -0.266  22.108  26.510  0.00  0.00    +0.142 HD
ENDBRANCH   1   2
BRANCH   1   4
ATOM      4  C   GLU A   1       1.525  22.987  28.818  0.00  0.00    +0.224 C 
ATOM      5  O   GLU A   1       0.981  24.086  28.688  0.00  0.00    -0.287 OA
ENDBRANCH   1   4
BRANCH   1   6
ATOM      6  CB  GLU A   1       2.239  22.399  26.478  0.00  0.00    +0.037 C 
BRANCH   6   7
ATOM      7  CG  GLU A   1       3.681  22.928  26.683  0.00  0.00    +0.116 C 
BRANCH   7   8
ATOM      8  CD  GLU A   1       4.136  23.440  25.333  0.00  0.00    +0.365 C 
ATOM      9  OE2 GLU A   1       3.893  24.620  25.011  0.00  0.00    -0.246 OA
ATOM     10  OE1 GLU A   1       4.727  22.579  24.634  0.00  0.00    -0.246 OA
ENDBRANCH   7   8
ENDBRANCH   6   7
ENDBRANCH   1   6
TORSDOF 5
REMARK  Name = ../refined-set-2016/1b32/1b32_pocket.pdb
REMARK  260 active torsions:
REMARK  status: ('A' for Active; 'I' for Inactive)
REMARK    1  A    between atoms: _1  and  _3
REMARK    2  A    between atoms: _3  and  _4
REMARK    3  A    between atoms: _3  and  _6
REMARK    4  A    between atoms: _6  and  _7
REMARK    5  A    between atoms: _12  and  _14
REMARK    6  A    between atoms: _14  and  _15
REMARK    7  A    between atoms: _14  and  _17
REMARK    8  A    between atoms: _17  and  _18
REMARK    9  A    between atoms: _20  and  _22
REMARK   10  A    between atoms: _22  and  _23
REMARK   11  A    between atoms: _22  and  _25
REMARK   12  A    between atoms: _25  and  _26
REMARK   13  A    between atoms: _26  and  _27
REMARK   14  A    between atoms: _32  and  _34
REMARK   15  A    between atoms: _34  and  _35
REMARK   16  A    between atoms: _34  and  _37
REMARK   17  A    between atoms: _37  and  _38
REMARK   18  A    between atoms: _41  and  _43
REMARK   19  A    between atoms: _43  and  _44
REMARK   20  A    between atoms: _43  and  _46
REMARK   21  A    between atoms: _46  and  _47
REMARK   22  A    between atoms: _47  and  _48
REMARK   23  A    between atoms: _51  and  _53
REMARK   24  A    between atoms: _53  and  _54
REMARK   25  A    between atoms: _56  and  _58
REMARK   26  A    between atoms: _58  and  _59
REMARK   27  A    between atoms: _58  and  _61
REMARK   28  A    between atoms: _65  and  _66
REMARK   29  A    between atoms: _71  and  _73
REMARK   30  A    between atoms: _73  and  _74
REMARK   31  A    between atoms: _73  and  _76
REMARK   32  A    between atoms: _76  and  _77
REMARK   33  A    between atoms: _77  and  _78
REMARK   34  A    between atoms: _81  and  _83
REMARK   35  A    between atoms: _83  and  _84
REMARK   36  A    between atoms: _83  and  _86
REMARK   37  A    between atoms: _86  and  _87
REMARK   38  A    between atoms: _89  and  _91
REMARK   39  A    between atoms: _91  and  _92
REMARK   40  A    between atoms: _91  and  _94
REMARK   41  A    between atoms: _94  and  _95
REMARK   42  A    between atoms: _100  and  _102
REMARK   43  A    between atoms: _102  and  _103
REMARK   44  A    between atoms: _102  and  _105
REMARK   45  A    between atoms: _105  and  _106
REMARK   46  A    between atoms: _106  and  _107
REMARK   47  A    between atoms: _107  and  _108
REMARK   48  A    between atoms: _118  and  _119
REMARK   49  A    between atoms: _124  and  _126
REMARK   50  A    between atoms: _126  and  _127
REMARK   51  A    between atoms: _126  and  _129
REMARK   52  A    between atoms: _129  and  _130
REMARK   53  A    between atoms: _135  and  _136
REMARK   54  A    between atoms: _138  and  _140
REMARK   55  A    between atoms: _140  and  _141
REMARK   56  A    between atoms: _140  and  _143
REMARK   57  A    between atoms: _143  and  _144
REMARK   58  A    between atoms: _149  and  _150
REMARK   59  A    between atoms: _152  and  _154
REMARK   60  A    between atoms: _154  and  _155
REMARK   61  A    between atoms: _154  and  _157
REMARK   62  A    between atoms: _160  and  _162
REMARK   63  A    between atoms: _162  and  _163
REMARK   64  A    between atoms: _162  and  _165
REMARK   65  A    between atoms: _165  and  _166
REMARK   66  A    between atoms: _172  and  _173
REMARK   67  A    between atoms: _178  and  _180
REMARK   68  A    between atoms: _180  and  _181
REMARK   69  A    between atoms: _180  and  _183
REMARK   70  A    between atoms: _183  and  _184
REMARK   71  A    between atoms: _186  and  _188
REMARK   72  A    between atoms: _188  and  _189
REMARK   73  A    between atoms: _188  and  _191
REMARK   74  A    between atoms: _191  and  _192
REMARK   75  A    between atoms: _197  and  _198
REMARK   76  A    between atoms: _200  and  _202
REMARK   77  A    between atoms: _202  and  _203
REMARK   78  A    between atoms: _202  and  _205
REMARK   79  A    between atoms: _205  and  _206
REMARK   80  A    between atoms: _211  and  _213
REMARK   81  A    between atoms: _213  and  _214
REMARK   82  A    between atoms: _213  and  _216
REMARK   83  A    between atoms: _216  and  _217
REMARK   84  A    between atoms: _222  and  _224
REMARK   85  A    between atoms: _224  and  _225
REMARK   86  A    between atoms: _224  and  _227
REMARK   87  A    between atoms: _227  and  _228
REMARK   88  A    between atoms: _228  and  _229
REMARK   89  A    between atoms: _231  and  _233
REMARK   90  A    between atoms: _233  and  _234
REMARK   91  A    between atoms: _233  and  _236
REMARK   92  A    between atoms: _236  and  _237
REMARK   93  A    between atoms: _242  and  _243
REMARK   94  A    between atoms: _245  and  _247
REMARK   95  A    between atoms: _247  and  _248
REMARK   96  A    between atoms: _247  and  _250
REMARK   97  A    between atoms: _250  and  _251
REMARK   98  A    between atoms: _254  and  _256
REMARK   99  A    between atoms: _256  and  _257
REMARK  100  A    between atoms: _256  and  _259
REMARK  101  A    between atoms: _259  and  _260
REMARK  102  A    between atoms: _260  and  _477
REMARK  103  A    between atoms: _261  and  _263
REMARK  104  A    between atoms: _263  and  _264
REMARK  105  A    between atoms: _263  and  _266
REMARK  106  A    between atoms: _266  and  _267
REMARK  107  A    between atoms: _270  and  _272
REMARK  108  A    between atoms: _272  and  _273
REMARK  109  A    between atoms: _272  and  _275
REMARK  110  A    between atoms: _275  and  _276
REMARK  111  A    between atoms: _281  and  _282
REMARK  112  A    between atoms: _284  and  _286
REMARK  113  A    between atoms: _286  and  _287
REMARK  114  A    between atoms: _286  and  _289
REMARK  115  A    between atoms: _289  and  _290
REMARK  116  A    between atoms: _295  and  _296
REMARK  117  A    between atoms: _298  and  _300
REMARK  118  A    between atoms: _300  and  _301
REMARK  119  A    between atoms: _300  and  _303
REMARK  120  A    between atoms: _303  and  _304
REMARK  121  A    between atoms: _304  and  _305
REMARK  122  A    between atoms: _308  and  _310
REMARK  123  A    between atoms: _310  and  _311
REMARK  124  A    between atoms: _310  and  _313
REMARK  125  A    between atoms: _313  and  _314
REMARK  126  A    between atoms: _319  and  _320
REMARK  127  A    between atoms: _322  and  _324
REMARK  128  A    between atoms: _324  and  _325
REMARK  129  A    between atoms: _324  and  _327
REMARK  130  A    between atoms: _327  and  _328
REMARK  131  A    between atoms: _333  and  _335
REMARK  132  A    between atoms: _335  and  _336
REMARK  133  A    between atoms: _335  and  _338
REMARK  134  A    between atoms: _338  and  _339
REMARK  135  A    between atoms: _342  and  _344
REMARK  136  A    between atoms: _344  and  _345
REMARK  137  A    between atoms: _344  and  _347
REMARK  138  A    between atoms: _347  and  _348
REMARK  139  A    between atoms: _353  and  _355
REMARK  140  A    between atoms: _355  and  _356
REMARK  141  A    between atoms: _355  and  _358
REMARK  142  A    between atoms: _358  and  _359
REMARK  143  A    between atoms: _369  and  _371
REMARK  144  A    between atoms: _371  and  _372
REMARK  145  A    between atoms: _371  and  _374
REMARK  146  A    between atoms: _374  and  _375
REMARK  147  A    between atoms: _381  and  _383
REMARK  148  A    between atoms: _383  and  _384
REMARK  149  A    between atoms: _383  and  _386
REMARK  150  A    between atoms: _386  and  _387
REMARK  151  A    between atoms: _390  and  _392
REMARK  152  A    between atoms: _392  and  _393
REMARK  153  A    between atoms: _392  and  _395
REMARK  154  A    between atoms: _395  and  _396
REMARK  155  A    between atoms: _399  and  _401
REMARK  156  A    between atoms: _401  and  _402
REMARK  157  A    between atoms: _401  and  _404
REMARK  158  A    between atoms: _404  and  _405
REMARK  159  A    between atoms: _405  and  _406
REMARK  160  A    between atoms: _406  and  _407
REMARK  161  A    between atoms: _416  and  _418
REMARK  162  A    between atoms: _418  and  _419
REMARK  163  A    between atoms: _418  and  _421
REMARK  164  A    between atoms: _421  and  _422
REMARK  165  A    between atoms: _427  and  _429
REMARK  166  A    between atoms: _429  and  _430
REMARK  167  A    between atoms: _429  and  _432
REMARK  168  A    between atoms: _432  and  _433
REMARK  169  A    between atoms: _433  and  _434
REMARK  170  A    between atoms: _434  and  _435
REMARK  171  A    between atoms: _444  and  _446
REMARK  172  A    between atoms: _446  and  _447
REMARK  173  A    between atoms: _450  and  _452
REMARK  174  A    between atoms: _452  and  _453
REMARK  175  A    between atoms: _455  and  _457
REMARK  176  A    between atoms: _457  and  _458
REMARK  177  A    between atoms: _457  and  _460
REMARK  178  A    between atoms: _460  and  _461
REMARK  179  A    between atoms: _471  and  _473
REMARK  180  A    between atoms: _473  and  _474
REMARK  181  A    between atoms: _473  and  _476
REMARK  182  A    between atoms: _476  and  _477
REMARK  183  A    between atoms: _478  and  _480
REMARK  184  A    between atoms: _480  and  _481
REMARK  185  A    between atoms: _484  and  _486
REMARK  186  A    between atoms: _486  and  _487
REMARK  187  A    between atoms: _486  and  _489
REMARK  188  A    between atoms: _489  and  _490
REMARK  189  A    between atoms: _493  and  _495
REMARK  190  A    between atoms: _495  and  _496
REMARK  191  A    between atoms: _495  and  _498
REMARK  192  A    between atoms: _498  and  _499
REMARK  193  A    between atoms: _504  and  _505
REMARK  194  A    between atoms: _507  and  _509
REMARK  195  A    between atoms: _509  and  _510
REMARK  196  A    between atoms: _509  and  _512
REMARK  197  A    between atoms: _512  and  _513
REMARK  198  A    between atoms: _515  and  _517
REMARK  199  A    between atoms: _517  and  _518
REMARK  200  A    between atoms: _517  and  _520
REMARK  201  A    between atoms: _520  and  _521
REMARK  202  A    between atoms: _527  and  _529
REMARK  203  A    between atoms: _529  and  _530
REMARK  204  A    between atoms: _529  and  _532
REMARK  205  A    between atoms: _532  and  _533
REMARK  206  A    between atoms: _536  and  _538
REMARK  207  A    between atoms: _538  and  _539
REMARK  208  A    between atoms: _538  and  _541
REMARK  209  A    between atoms: _541  and  _542
REMARK  210  A    between atoms: _544  and  _546
REMARK  211  A    between atoms: _546  and  _547
REMARK  212  A    between atoms: _546  and  _549
REMARK  213  A    between atoms: _549  and  _550
REMARK  214  A    between atoms: _555  and  _557
REMARK  215  A    between atoms: _557  and  _558
REMARK  216  A    between atoms: _557  and  _560
REMARK  217  A    between atoms: _560  and  _561
REMARK  218  A    between atoms: _566  and  _568
REMARK  219  A    between atoms: _568  and  _569
REMARK  220  A    between atoms: _568  and  _571
REMARK  221  A    between atoms: _571  and  _572
REMARK  222  A    between atoms: _575  and  _577
REMARK  223  A    between atoms: _577  and  _578
REMARK  224  A    between atoms: _581  and  _583
REMARK  225  A    between atoms: _583  and  _584
REMARK  226  A    between atoms: _583  and  _586
REMARK  227  A    between atoms: _586  and  _587
REMARK  228  A    between atoms: _592  and  _593
REMARK  229  A    between atoms: _595  and  _597
REMARK  230  A    between atoms: _597  and  _598
REMARK  231  A    between atoms: _597  and  _600
REMARK  232  A    between atoms: _600  and  _601
REMARK  233  A    between atoms: _606  and  _607
REMARK  234  A    between atoms: _609  and  _611
REMARK  235  A    between atoms: _611  and  _612
REMARK  236  A    between atoms: _611  and  _614
REMARK  237  A    between atoms: _617  and  _619
REMARK  238  A    between atoms: _619  and  _620
REMARK  239  A    between atoms: _619  and  _622
REMARK  240  A    between atoms: _622  and  _623
REMARK  241  A    between atoms: _628  and  _630
REMARK  242  A    between atoms: _630  and  _631
REMARK  243  A    between atoms: _634  and  _636
REMARK  244  A    between atoms: _636  and  _637
REMARK  245  A    between atoms: _636  and  _639
REMARK  246  A    between atoms: _639  and  _640
REMARK  247  A    between atoms: _640  and  _641
REMARK  248  A    between atoms: _641  and  _642
REMARK  249  A    between atoms: _651  and  _653
REMARK  250  A    between atoms: _653  and  _654
REMARK  251  A    between atoms: _653  and  _656
REMARK  252  A    between atoms: _656  and  _657
REMARK  253  A    between atoms: _660  and  _662
REMARK  254  A    between atoms: _662  and  _663
REMARK  255  A    between atoms: _662  and  _665
REMARK  256  A    between atoms: _665  and  _666
REMARK  257  A    between atoms: _669  and  _671
REMARK  258  A    between atoms: _671  and  _672
REMARK  259  A    between atoms: _671  and  _674
REMARK  260  A    between atoms: _674  and  _675
REMARK                            x       y       z     vdW  Elec       q    Type
REMARK                         _______ _______ _______ _____ _____    ______ ____
ROOT
ATOM      1  CG  TYR A   1       4.954  13.395  25.531  0.00  0.00    -0.020 A 
ATOM      2  CD2 TYR A   1       6.315  13.469  25.274  0.00  0.00    -0.001 A 
ATOM      3  CE2 TYR A   1       6.836  14.389  24.394  0.00  0.00    +0.036 A 
ATOM      4  CZ  TYR A   1       5.984  15.262  23.760  0.00  0.00    +0.134 A 
ATOM      5  CE1 TYR A   1       4.623  15.237  23.998  0.00  0.00    +0.036 A 
ATOM      6  CD1 TYR A   1       4.098  14.279  24.868  0.00  0.00    -0.001 A 
ENDROOT
BRANCH   4   7
ATOM      7  OH  TYR A   1       6.532  16.218  22.917  0.00  0.00    -0.506 OA
ATOM      8  HH  TYR A   1       7.152  16.794  23.431  0.00  0.00    +0.292 HD
ENDBRANCH   4   7
BRANCH   1   9
ATOM      9  CB  TYR A   1       4.445  12.363  26.504  0.00  0.00    +0.051 C 
BRANCH   9  10
ATOM     10  CA  TYR A   1       3.170  11.636  26.116  0.00  0.00    +0.137 C 
BRANCH  10  11
ATOM     11  N   TYR A   1       2.833  10.723  27.231  0.00  0.00    -0.239 NA
ATOM     12  H   TYR A   1       3.580  10.306  27.823  0.00  0.00    +0.142 HD
ENDBRANCH  10  11
BRANCH  10  13
ATOM     13  C   TYR A   1       3.320  10.793  24.855  0.00  0.00    +0.224 C 
ATOM     14  O   TYR A   1       2.580  10.868  23.878  0.00  0.00    -0.287 OA
ENDBRANCH  10  13
ENDBRANCH   9  10
ENDBRANCH   1   9
TORSDOF 5
REMARK  Name = ../refined-set-2016/1b32/1b32_pocket.pdb
REMARK  260 active torsions:
REMARK  status: ('A' for Active; 'I' for Inactive)
REMARK    1  A    between atoms: _1  and  _3
REMARK    2  A    between atoms: _3  and  _4
REMARK    3  A    between atoms: _3  and  _6
REMARK    4  A    between atoms: _6  and  _7
REMARK    5  A    between atoms: _12  and  _14
REMARK    6  A    between atoms: _14  and  _15
REMARK    7  A    between atoms: _14  and  _17
REMARK    8  A    between atoms: _17  and  _18
REMARK    9  A    between atoms: _20  and  _22
REMARK   10  A    between atoms: _22  and  _23
REMARK   11  A    between atoms: _22  and  _25
REMARK   12  A    between atoms: _25  and  _26
REMARK   13  A    between atoms: _26  and  _27
REMARK   14  A    between atoms: _32  and  _34
REMARK   15  A    between atoms: _34  and  _35
REMARK   16  A    between atoms: _34  and  _37
REMARK   17  A    between atoms: _37  and  _38
REMARK   18  A    between atoms: _41  and  _43
REMARK   19  A    between atoms: _43  and  _44
REMARK   20  A    between atoms: _43  and  _46
REMARK   21  A    between atoms: _46  and  _47
REMARK   22  A    between atoms: _47  and  _48
REMARK   23  A    between atoms: _51  and  _53
REMARK   24  A    between atoms: _53  and  _54
REMARK   25  A    between atoms: _56  and  _58
REMARK   26  A    between atoms: _58  and  _59
REMARK   27  A    between atoms: _58  and  _61
REMARK   28  A    between atoms: _65  and  _66
REMARK   29  A    between atoms: _71  and  _73
REMARK   30  A    between atoms: _73  and  _74
REMARK   31  A    between atoms: _73  and  _76
REMARK   32  A    between atoms: _76  and  _77
REMARK   33  A    between atoms: _77  and  _78
REMARK   34  A    between atoms: _81  and  _83
REMARK   35  A    between atoms: _83  and  _84
REMARK   36  A    between atoms: _83  and  _86
REMARK   37  A    between atoms: _86  and  _87
REMARK   38  A    between atoms: _89  and  _91
REMARK   39  A    between atoms: _91  and  _92
REMARK   40  A    between atoms: _91  and  _94
REMARK   41  A    between atoms: _94  and  _95
REMARK   42  A    between atoms: _100  and  _102
REMARK   43  A    between atoms: _102  and  _103
REMARK   44  A    between atoms: _102  and  _105
REMARK   45  A    between atoms: _105  and  _106
REMARK   46  A    between atoms: _106  and  _107
REMARK   47  A    between atoms: _107  and  _108
REMARK   48  A    between atoms: _118  and  _119
REMARK   49  A    between atoms: _124  and  _126
REMARK   50  A    between atoms: _126  and  _127
REMARK   51  A    between atoms: _126  and  _129
REMARK   52  A    between atoms: _129  and  _130
REMARK   53  A    between atoms: _135  and  _136
REMARK   54  A    between atoms: _138  and  _140
REMARK   55  A    between atoms: _140  and  _141
REMARK   56  A    between atoms: _140  and  _143
REMARK   57  A    between atoms: _143  and  _144
REMARK   58  A    between atoms: _149  and  _150
REMARK   59  A    between atoms: _152  and  _154
REMARK   60  A    between atoms: _154  and  _155
REMARK   61  A    between atoms: _154  and  _157
REMARK   62  A    between atoms: _160  and  _162
REMARK   63  A    between atoms: _162  and  _163
REMARK   64  A    between atoms: _162  and  _165
REMARK   65  A    between atoms: _165  and  _166
REMARK   66  A    between atoms: _172  and  _173
REMARK   67  A    between atoms: _178  and  _180
REMARK   68  A    between atoms: _180  and  _181
REMARK   69  A    between atoms: _180  and  _183
REMARK   70  A    between atoms: _183  and  _184
REMARK   71  A    between atoms: _186  and  _188
REMARK   72  A    between atoms: _188  and  _189
REMARK   73  A    between atoms: _188  and  _191
REMARK   74  A    between atoms: _191  and  _192
REMARK   75  A    between atoms: _197  and  _198
REMARK   76  A    between atoms: _200  and  _202
REMARK   77  A    between atoms: _202  and  _203
REMARK   78  A    between atoms: _202  and  _205
REMARK   79  A    between atoms: _205  and  _206
REMARK   80  A    between atoms: _211  and  _213
REMARK   81  A    between atoms: _213  and  _214
REMARK   82  A    between atoms: _213  and  _216
REMARK   83  A    between atoms: _216  and  _217
REMARK   84  A    between atoms: _222  and  _224
REMARK   85  A    between atoms: _224  and  _225
REMARK   86  A    between atoms: _224  and  _227
REMARK   87  A    between atoms: _227  and  _228
REMARK   88  A    between atoms: _228  and  _229
REMARK   89  A    between atoms: _231  and  _233
REMARK   90  A    between atoms: _233  and  _234
REMARK   91  A    between atoms: _233  and  _236
REMARK   92  A    between atoms: _236  and  _237
REMARK   93  A    between atoms: _242  and  _243
REMARK   94  A    between atoms: _245  and  _247
REMARK   95  A    between atoms: _247  and  _248
REMARK   96  A    between atoms: _247  and  _250
REMARK   97  A    between atoms: _250  and  _251
REMARK   98  A    between atoms: _254  and  _256
REMARK   99  A    between atoms: _256  and  _257
REMARK  100  A    between atoms: _256  and  _259
REMARK  101  A    between atoms: _259  and  _260
REMARK  102  A    between atoms: _260  and  _477
REMARK  103  A    between atoms: _261  and  _263
REMARK  104  A    between atoms: _263  and  _264
REMARK  105  A    between atoms: _263  and  _266
REMARK  106  A    between atoms: _266  and  _267
REMARK  107  A    between atoms: _270  and  _272
REMARK  108  A    between atoms: _272  and  _273
REMARK  109  A    between atoms: _272  and  _275
REMARK  110  A    between atoms: _275  and  _276
REMARK  111  A    between atoms: _281  and  _282
REMARK  112  A    between atoms: _284  and  _286
REMARK  113  A    between atoms: _286  and  _287
REMARK  114  A    between atoms: _286  and  _289
REMARK  115  A    between atoms: _289  and  _290
REMARK  116  A    between atoms: _295  and  _296
REMARK  117  A    between atoms: _298  and  _300
REMARK  118  A    between atoms: _300  and  _301
REMARK  119  A    between atoms: _300  and  _303
REMARK  120  A    between atoms: _303  and  _304
REMARK  121  A    between atoms: _304  and  _305
REMARK  122  A    between atoms: _308  and  _310
REMARK  123  A    between atoms: _310  and  _311
REMARK  124  A    between atoms: _310  and  _313
REMARK  125  A    between atoms: _313  and  _314
REMARK  126  A    between atoms: _319  and  _320
REMARK  127  A    between atoms: _322  and  _324
REMARK  128  A    between atoms: _324  and  _325
REMARK  129  A    between atoms: _324  and  _327
REMARK  130  A    between atoms: _327  and  _328
REMARK  131  A    between atoms: _333  and  _335
REMARK  132  A    between atoms: _335  and  _336
REMARK  133  A    between atoms: _335  and  _338
REMARK  134  A    between atoms: _338  and  _339
REMARK  135  A    between atoms: _342  and  _344
REMARK  136  A    between atoms: _344  and  _345
REMARK  137  A    between atoms: _344  and  _347
REMARK  138  A    between atoms: _347  and  _348
REMARK  139  A    between atoms: _353  and  _355
REMARK  140  A    between atoms: _355  and  _356
REMARK  141  A    between atoms: _355  and  _358
REMARK  142  A    between atoms: _358  and  _359
REMARK  143  A    between atoms: _369  and  _371
REMARK  144  A    between atoms: _371  and  _372
REMARK  145  A    between atoms: _371  and  _374
REMARK  146  A    between atoms: _374  and  _375
REMARK  147  A    between atoms: _381  and  _383
REMARK  148  A    between atoms: _383  and  _384
REMARK  149  A    between atoms: _383  and  _386
REMARK  150  A    between atoms: _386  and  _387
REMARK  151  A    between atoms: _390  and  _392
REMARK  152  A    between atoms: _392  and  _393
REMARK  153  A    between atoms: _392  and  _395
REMARK  154  A    between atoms: _395  and  _396
REMARK  155  A    between atoms: _399  and  _401
REMARK  156  A    between atoms: _401  and  _402
REMARK  157  A    between atoms: _401  and  _404
REMARK  158  A    between atoms: _404  and  _405
REMARK  159  A    between atoms: _405  and  _406
REMARK  160  A    between atoms: _406  and  _407
REMARK  161  A    between atoms: _416  and  _418
REMARK  162  A    between atoms: _418  and  _419
REMARK  163  A    between atoms: _418  and  _421
REMARK  164  A    between atoms: _421  and  _422
REMARK  165  A    between atoms: _427  and  _429
REMARK  166  A    between atoms: _429  and  _430
REMARK  167  A    between atoms: _429  and  _432
REMARK  168  A    between atoms: _432  and  _433
REMARK  169  A    between atoms: _433  and  _434
REMARK  170  A    between atoms: _434  and  _435
REMARK  171  A    between atoms: _444  and  _446
REMARK  172  A    between atoms: _446  and  _447
REMARK  173  A    between atoms: _450  and  _452
REMARK  174  A    between atoms: _452  and  _453
REMARK  175  A    between atoms: _455  and  _457
REMARK  176  A    between atoms: _457  and  _458
REMARK  177  A    between atoms: _457  and  _460
REMARK  178  A    between atoms: _460  and  _461
REMARK  179  A    between atoms: _471  and  _473
REMARK  180  A    between atoms: _473  and  _474
REMARK  181  A    between atoms: _473  and  _476
REMARK  182  A    between atoms: _476  and  _477
REMARK  183  A    between atoms: _478  and  _480
REMARK  184  A    between atoms: _480  and  _481
REMARK  185  A    between atoms: _484  and  _486
REMARK  186  A    between atoms: _486  and  _487
REMARK  187  A    between atoms: _486  and  _489
REMARK  188  A    between atoms: _489  and  _490
REMARK  189  A    between atoms: _493  and  _495
REMARK  190  A    between atoms: _495  and  _496
REMARK  191  A    between atoms: _495  and  _498
REMARK  192  A    between atoms: _498  and  _499
REMARK  193  A    between atoms: _504  and  _505
REMARK  194  A    between atoms: _507  and  _509
REMARK  195  A    between atoms: _509  and  _510
REMARK  196  A    between atoms: _509  and  _512
REMARK  197  A    between atoms: _512  and  _513
REMARK  198  A    between atoms: _515  and  _517
REMARK  199  A    between atoms: _517  and  _518
REMARK  200  A    between atoms: _517  and  _520
REMARK  201  A    between atoms: _520  and  _521
REMARK  202  A    between atoms: _527  and  _529
REMARK  203  A    between atoms: _529  and  _530
REMARK  204  A    between atoms: _529  and  _532
REMARK  205  A    between atoms: _532  and  _533
REMARK  206  A    between atoms: _536  and  _538
REMARK  207  A    between atoms: _538  and  _539
REMARK  208  A    between atoms: _538  and  _541
REMARK  209  A    between atoms: _541  and  _542
REMARK  210  A    between atoms: _544  and  _546
REMARK  211  A    between atoms: _546  and  _547
REMARK  212  A    between atoms: _546  and  _549
REMARK  213  A    between atoms: _549  and  _550
REMARK  214  A    between atoms: _555  and  _557
REMARK  215  A    between atoms: _557  and  _558
REMARK  216  A    between atoms: _557  and  _560
REMARK  217  A    between atoms: _560  and  _561
REMARK  218  A    between atoms: _566  and  _568
REMARK  219  A    between atoms: _568  and  _569
REMARK  220  A    between atoms: _568  and  _571
REMARK  221  A    between atoms: _571  and  _572
REMARK  222  A    between atoms: _575  and  _577
REMARK  223  A    between atoms: _577  and  _578
REMARK  224  A    between atoms: _581  and  _583
REMARK  225  A    between atoms: _583  and  _584
REMARK  226  A    between atoms: _583  and  _586
REMARK  227  A    between atoms: _586  and  _587
REMARK  228  A    between atoms: _592  and  _593
REMARK  229  A    between atoms: _595  and  _597
REMARK  230  A    between atoms: _597  and  _598
REMARK  231  A    between atoms: _597  and  _600
REMARK  232  A    between atoms: _600  and  _601
REMARK  233  A    between atoms: _606  and  _607
REMARK  234  A    between atoms: _609  and  _611
REMARK  235  A    between atoms: _611  and  _612
REMARK  236  A    between atoms: _611  and  _614
REMARK  237  A    between atoms: _617  and  _619
REMARK  238  A    between atoms: _619  and  _620
REMARK  239  A    between atoms: _619  and  _622
REMARK  240  A    between atoms: _622  and  _623
REMARK  241  A    between atoms: _628  and  _630
REMARK  242  A    between atoms: _630  and  _631
REMARK  243  A    between atoms: _634  and  _636
REMARK  244  A    between atoms: _636  and  _637
REMARK  245  A    between atoms: _636  and  _639
REMARK  246  A    between atoms: _639  and  _640
REMARK  247  A    between atoms: _640  and  _641
REMARK  248  A    between atoms: _641  and  _642
REMARK  249  A    between atoms: _651  and  _653
REMARK  250  A    between atoms: _653  and  _654
REMARK  251  A    between atoms: _653  and  _656
REMARK  252  A    between atoms: _656  and  _657
REMARK  253  A    between atoms: _660  and  _662
REMARK  254  A    between atoms: _662  and  _663
REMARK  255  A    between atoms: _662  and  _665
REMARK  256  A    between atoms: _665  and  _666
REMARK  257  A    between atoms: _669  and  _671
REMARK  258  A    between atoms: _671  and  _672
REMARK  259  A    between atoms: _671  and  _674
REMARK  260  A    between atoms: _674  and  _675
REMARK                            x       y       z     vdW  Elec       q    Type
REMARK                         _______ _______ _______ _____ _____    ______ ____
ROOT
ATOM      1  CB  ASN A   1      -3.086  27.492  17.191  0.00  0.00    +0.110 C 
ENDROOT
BRANCH   1   2
ATOM      2  CG  ASN A   1      -3.437  26.022  17.091  0.00  0.00    +0.221 C 
ATOM      3  OD1 ASN A   1      -3.429  25.289  18.092  0.00  0.00    -0.275 OA
ATOM      4  ND2 ASN A   1      -3.776  25.555  15.883  0.00  0.00    -0.329 N 
ATOM      5 HD21 ASN A   1      -4.041  24.556  15.767  0.00  0.00    +0.145 HD
ATOM      6 HD22 ASN A   1      -3.774  26.191  15.060  0.00  0.00    +0.145 HD
ENDBRANCH   1   2
BRANCH   1   7
ATOM      7  CA  ASN A   1      -4.070  28.305  18.027  0.00  0.00    +0.142 C 
BRANCH   7   8
ATOM      8  N   ASN A   1      -4.117  27.723  19.380  0.00  0.00    -0.239 NA
ATOM      9  H   ASN A   1      -3.904  26.717  19.539  0.00  0.00    +0.142 HD
ENDBRANCH   7   8
BRANCH   7  10
ATOM     10  C   ASN A   1      -5.477  28.342  17.458  0.00  0.00    +0.225 C 
ATOM     11  O   ASN A   1      -6.294  27.429  17.598  0.00  0.00    -0.287 OA
ENDBRANCH   7  10
ENDBRANCH   1   7
TORSDOF 4
REMARK  Name = ../refined-set-2016/1b32/1b32_pocket.pdb
REMARK  260 active torsions:
REMARK  status: ('A' for Active; 'I' for Inactive)
REMARK    1  A    between atoms: _1  and  _3
REMARK    2  A    between atoms: _3  and  _4
REMARK    3  A    between atoms: _3  and  _6
REMARK    4  A    between atoms: _6  and  _7
REMARK    5  A    between atoms: _12  and  _14
REMARK    6  A    between atoms: _14  and  _15
REMARK    7  A    between atoms: _14  and  _17
REMARK    8  A    between atoms: _17  and  _18
REMARK    9  A    between atoms: _20  and  _22
REMARK   10  A    between atoms: _22  and  _23
REMARK   11  A    between atoms: _22  and  _25
REMARK   12  A    between atoms: _25  and  _26
REMARK   13  A    between atoms: _26  and  _27
REMARK   14  A    between atoms: _32  and  _34
REMARK   15  A    between atoms: _34  and  _35
REMARK   16  A    between atoms: _34  and  _37
REMARK   17  A    between atoms: _37  and  _38
REMARK   18  A    between atoms: _41  and  _43
REMARK   19  A    between atoms: _43  and  _44
REMARK   20  A    between atoms: _43  and  _46
REMARK   21  A    between atoms: _46  and  _47
REMARK   22  A    between atoms: _47  and  _48
REMARK   23  A    between atoms: _51  and  _53
REMARK   24  A    between atoms: _53  and  _54
REMARK   25  A    between atoms: _56  and  _58
REMARK   26  A    between atoms: _58  and  _59
REMARK   27  A    between atoms: _58  and  _61
REMARK   28  A    between atoms: _65  and  _66
REMARK   29  A    between atoms: _71  and  _73
REMARK   30  A    between atoms: _73  and  _74
REMARK   31  A    between atoms: _73  and  _76
REMARK   32  A    between atoms: _76  and  _77
REMARK   33  A    between atoms: _77  and  _78
REMARK   34  A    between atoms: _81  and  _83
REMARK   35  A    between atoms: _83  and  _84
REMARK   36  A    between atoms: _83  and  _86
REMARK   37  A    between atoms: _86  and  _87
REMARK   38  A    between atoms: _89  and  _91
REMARK   39  A    between atoms: _91  and  _92
REMARK   40  A    between atoms: _91  and  _94
REMARK   41  A    between atoms: _94  and  _95
REMARK   42  A    between atoms: _100  and  _102
REMARK   43  A    between atoms: _102  and  _103
REMARK   44  A    between atoms: _102  and  _105
REMARK   45  A    between atoms: _105  and  _106
REMARK   46  A    between atoms: _106  and  _107
REMARK   47  A    between atoms: _107  and  _108
REMARK   48  A    between atoms: _118  and  _119
REMARK   49  A    between atoms: _124  and  _126
REMARK   50  A    between atoms: _126  and  _127
REMARK   51  A    between atoms: _126  and  _129
REMARK   52  A    between atoms: _129  and  _130
REMARK   53  A    between atoms: _135  and  _136
REMARK   54  A    between atoms: _138  and  _140
REMARK   55  A    between atoms: _140  and  _141
REMARK   56  A    between atoms: _140  and  _143
REMARK   57  A    between atoms: _143  and  _144
REMARK   58  A    between atoms: _149  and  _150
REMARK   59  A    between atoms: _152  and  _154
REMARK   60  A    between atoms: _154  and  _155
REMARK   61  A    between atoms: _154  and  _157
REMARK   62  A    between atoms: _160  and  _162
REMARK   63  A    between atoms: _162  and  _163
REMARK   64  A    between atoms: _162  and  _165
REMARK   65  A    between atoms: _165  and  _166
REMARK   66  A    between atoms: _172  and  _173
REMARK   67  A    between atoms: _178  and  _180
REMARK   68  A    between atoms: _180  and  _181
REMARK   69  A    between atoms: _180  and  _183
REMARK   70  A    between atoms: _183  and  _184
REMARK   71  A    between atoms: _186  and  _188
REMARK   72  A    between atoms: _188  and  _189
REMARK   73  A    between atoms: _188  and  _191
REMARK   74  A    between atoms: _191  and  _192
REMARK   75  A    between atoms: _197  and  _198
REMARK   76  A    between atoms: _200  and  _202
REMARK   77  A    between atoms: _202  and  _203
REMARK   78  A    between atoms: _202  and  _205
REMARK   79  A    between atoms: _205  and  _206
REMARK   80  A    between atoms: _211  and  _213
REMARK   81  A    between atoms: _213  and  _214
REMARK   82  A    between atoms: _213  and  _216
REMARK   83  A    between atoms: _216  and  _217
REMARK   84  A    between atoms: _222  and  _224
REMARK   85  A    between atoms: _224  and  _225
REMARK   86  A    between atoms: _224  and  _227
REMARK   87  A    between atoms: _227  and  _228
REMARK   88  A    between atoms: _228  and  _229
REMARK   89  A    between atoms: _231  and  _233
REMARK   90  A    between atoms: _233  and  _234
REMARK   91  A    between atoms: _233  and  _236
REMARK   92  A    between atoms: _236  and  _237
REMARK   93  A    between atoms: _242  and  _243
REMARK   94  A    between atoms: _245  and  _247
REMARK   95  A    between atoms: _247  and  _248
REMARK   96  A    between atoms: _247  and  _250
REMARK   97  A    between atoms: _250  and  _251
REMARK   98  A    between atoms: _254  and  _256
REMARK   99  A    between atoms: _256  and  _257
REMARK  100  A    between atoms: _256  and  _259
REMARK  101  A    between atoms: _259  and  _260
REMARK  102  A    between atoms: _260  and  _477
REMARK  103  A    between atoms: _261  and  _263
REMARK  104  A    between atoms: _263  and  _264
REMARK  105  A    between atoms: _263  and  _266
REMARK  106  A    between atoms: _266  and  _267
REMARK  107  A    between atoms: _270  and  _272
REMARK  108  A    between atoms: _272  and  _273
REMARK  109  A    between atoms: _272  and  _275
REMARK  110  A    between atoms: _275  and  _276
REMARK  111  A    between atoms: _281  and  _282
REMARK  112  A    between atoms: _284  and  _286
REMARK  113  A    between atoms: _286  and  _287
REMARK  114  A    between atoms: _286  and  _289
REMARK  115  A    between atoms: _289  and  _290
REMARK  116  A    between atoms: _295  and  _296
REMARK  117  A    between atoms: _298  and  _300
REMARK  118  A    between atoms: _300  and  _301
REMARK  119  A    between atoms: _300  and  _303
REMARK  120  A    between atoms: _303  and  _304
REMARK  121  A    between atoms: _304  and  _305
REMARK  122  A    between atoms: _308  and  _310
REMARK  123  A    between atoms: _310  and  _311
REMARK  124  A    between atoms: _310  and  _313
REMARK  125  A    between atoms: _313  and  _314
REMARK  126  A    between atoms: _319  and  _320
REMARK  127  A    between atoms: _322  and  _324
REMARK  128  A    between atoms: _324  and  _325
REMARK  129  A    between atoms: _324  and  _327
REMARK  130  A    between atoms: _327  and  _328
REMARK  131  A    between atoms: _333  and  _335
REMARK  132  A    between atoms: _335  and  _336
REMARK  133  A    between atoms: _335  and  _338
REMARK  134  A    between atoms: _338  and  _339
REMARK  135  A    between atoms: _342  and  _344
REMARK  136  A    between atoms: _344  and  _345
REMARK  137  A    between atoms: _344  and  _347
REMARK  138  A    between atoms: _347  and  _348
REMARK  139  A    between atoms: _353  and  _355
REMARK  140  A    between atoms: _355  and  _356
REMARK  141  A    between atoms: _355  and  _358
REMARK  142  A    between atoms: _358  and  _359
REMARK  143  A    between atoms: _369  and  _371
REMARK  144  A    between atoms: _371  and  _372
REMARK  145  A    between atoms: _371  and  _374
REMARK  146  A    between atoms: _374  and  _375
REMARK  147  A    between atoms: _381  and  _383
REMARK  148  A    between atoms: _383  and  _384
REMARK  149  A    between atoms: _383  and  _386
REMARK  150  A    between atoms: _386  and  _387
REMARK  151  A    between atoms: _390  and  _392
REMARK  152  A    between atoms: _392  and  _393
REMARK  153  A    between atoms: _392  and  _395
REMARK  154  A    between atoms: _395  and  _396
REMARK  155  A    between atoms: _399  and  _401
REMARK  156  A    between atoms: _401  and  _402
REMARK  157  A    between atoms: _401  and  _404
REMARK  158  A    between atoms: _404  and  _405
REMARK  159  A    between atoms: _405  and  _406
REMARK  160  A    between atoms: _406  and  _407
REMARK  161  A    between atoms: _416  and  _418
REMARK  162  A    between atoms: _418  and  _419
REMARK  163  A    between atoms: _418  and  _421
REMARK  164  A    between atoms: _421  and  _422
REMARK  165  A    between atoms: _427  and  _429
REMARK  166  A    between atoms: _429  and  _430
REMARK  167  A    between atoms: _429  and  _432
REMARK  168  A    between atoms: _432  and  _433
REMARK  169  A    between atoms: _433  and  _434
REMARK  170  A    between atoms: _434  and  _435
REMARK  171  A    between atoms: _444  and  _446
REMARK  172  A    between atoms: _446  and  _447
REMARK  173  A    between atoms: _450  and  _452
REMARK  174  A    between atoms: _452  and  _453
REMARK  175  A    between atoms: _455  and  _457
REMARK  176  A    between atoms: _457  and  _458
REMARK  177  A    between atoms: _457  and  _460
REMARK  178  A    between atoms: _460  and  _461
REMARK  179  A    between atoms: _471  and  _473
REMARK  180  A    between atoms: _473  and  _474
REMARK  181  A    between atoms: _473  and  _476
REMARK  182  A    between atoms: _476  and  _477
REMARK  183  A    between atoms: _478  and  _480
REMARK  184  A    between atoms: _480  and  _481
REMARK  185  A    between atoms: _484  and  _486
REMARK  186  A    between atoms: _486  and  _487
REMARK  187  A    between atoms: _486  and  _489
REMARK  188  A    between atoms: _489  and  _490
REMARK  189  A    between atoms: _493  and  _495
REMARK  190  A    between atoms: _495  and  _496
REMARK  191  A    between atoms: _495  and  _498
REMARK  192  A    between atoms: _498  and  _499
REMARK  193  A    between atoms: _504  and  _505
REMARK  194  A    between atoms: _507  and  _509
REMARK  195  A    between atoms: _509  and  _510
REMARK  196  A    between atoms: _509  and  _512
REMARK  197  A    between atoms: _512  and  _513
REMARK  198  A    between atoms: _515  and  _517
REMARK  199  A    between atoms: _517  and  _518
REMARK  200  A    between atoms: _517  and  _520
REMARK  201  A    between atoms: _520  and  _521
REMARK  202  A    between atoms: _527  and  _529
REMARK  203  A    between atoms: _529  and  _530
REMARK  204  A    between atoms: _529  and  _532
REMARK  205  A    between atoms: _532  and  _533
REMARK  206  A    between atoms: _536  and  _538
REMARK  207  A    between atoms: _538  and  _539
REMARK  208  A    between atoms: _538  and  _541
REMARK  209  A    between atoms: _541  and  _542
REMARK  210  A    between atoms: _544  and  _546
REMARK  211  A    between atoms: _546  and  _547
REMARK  212  A    between atoms: _546  and  _549
REMARK  213  A    between atoms: _549  and  _550
REMARK  214  A    between atoms: _555  and  _557
REMARK  215  A    between atoms: _557  and  _558
REMARK  216  A    between atoms: _557  and  _560
REMARK  217  A    between atoms: _560  and  _561
REMARK  218  A    between atoms: _566  and  _568
REMARK  219  A    between atoms: _568  and  _569
REMARK  220  A    between atoms: _568  and  _571
REMARK  221  A    between atoms: _571  and  _572
REMARK  222  A    between atoms: _575  and  _577
REMARK  223  A    between atoms: _577  and  _578
REMARK  224  A    between atoms: _581  and  _583
REMARK  225  A    between atoms: _583  and  _584
REMARK  226  A    between atoms: _583  and  _586
REMARK  227  A    between atoms: _586  and  _587
REMARK  228  A    between atoms: _592  and  _593
REMARK  229  A    between atoms: _595  and  _597
REMARK  230  A    between atoms: _597  and  _598
REMARK  231  A    between atoms: _597  and  _600
REMARK  232  A    between atoms: _600  and  _601
REMARK  233  A    between atoms: _606  and  _607
REMARK  234  A    between atoms: _609  and  _611
REMARK  235  A    between atoms: _611  and  _612
REMARK  236  A    between atoms: _611  and  _614
REMARK  237  A    between atoms: _617  and  _619
REMARK  238  A    between atoms: _619  and  _620
REMARK  239  A    between atoms: _619  and  _622
REMARK  240  A    between atoms: _622  and  _623
REMARK  241  A    between atoms: _628  and  _630
REMARK  242  A    between atoms: _630  and  _631
REMARK  243  A    between atoms: _634  and  _636
REMARK  244  A    between atoms: _636  and  _637
REMARK  245  A    between atoms: _636  and  _639
REMARK  246  A    between atoms: _639  and  _640
REMARK  247  A    between atoms: _640  and  _641
REMARK  248  A    between atoms: _641  and  _642
REMARK  249  A    between atoms: _651  and  _653
REMARK  250  A    between atoms: _653  and  _654
REMARK  251  A    between atoms: _653  and  _656
REMARK  252  A    between atoms: _656  and  _657
REMARK  253  A    between atoms: _660  and  _662
REMARK  254  A    between atoms: _662  and  _663
REMARK  255  A    between atoms: _662  and  _665
REMARK  256  A    between atoms: _665  and  _666
REMARK  257  A    between atoms: _669  and  _671
REMARK  258  A    between atoms: _671  and  _672
REMARK  259  A    between atoms: _671  and  _674
REMARK  260  A    between atoms: _674  and  _675
REMARK                            x       y       z     vdW  Elec       q    Type
REMARK                         _______ _______ _______ _____ _____    ______ ____
ROOT
ATOM      1  C   LEU A   1     -11.138  22.756  18.644  0.00  0.00    +0.238 C 
ATOM      2  O   LEU A   1     -11.620  22.390  19.729  0.00  0.00    -0.274 OA
ATOM      3  N   HIS A   2     -10.004  23.468  18.551  0.00  0.00    -0.298 N 
ATOM      4  H   HIS A   2      -9.638  23.796  17.634  0.00  0.00    +0.150 HD
ENDROOT
BRANCH   1   5
ATOM      5  CA  LEU A   1     -11.868  22.355  17.359  0.00  0.00    +0.145 C 
BRANCH   5   6
ATOM      6  N   LEU A   1     -12.141  23.488  16.501  0.00  0.00    -0.238 NA
ATOM      7  H   LEU A   1     -11.786  23.483  15.523  0.00  0.00    +0.142 HD
ENDBRANCH   5   6
BRANCH   5   8
ATOM      8  CB  LEU A   1     -11.023  21.326  16.617  0.00  0.00    +0.026 C 
BRANCH   8   9
ATOM      9  CG  LEU A   1     -10.510  20.129  17.393  0.00  0.00    +0.002 C 
ATOM     10  CD2 LEU A   1     -11.679  19.273  17.869  0.00  0.00    +0.000 C 
ATOM     11  CD1 LEU A   1      -9.604  19.265  16.514  0.00  0.00    +0.000 C 
ENDBRANCH   8   9
ENDBRANCH   5   8
ENDBRANCH   1   5
BRANCH   3  12
ATOM     12  CA  HIS A   2      -9.308  23.759  19.807  0.00  0.00    +0.143 C 
BRANCH  12  13
ATOM     13  C   HIS A   2     -10.085  24.711  20.700  0.00  0.00    +0.227 C 
ATOM     14  O   HIS A   2      -9.940  24.584  21.921  0.00  0.00    -0.286 OA
ENDBRANCH  12  13
BRANCH  12  15
ATOM     15  CB  HIS A   2      -7.908  24.333  19.552  0.00  0.00    +0.075 C 
BRANCH  15  16
ATOM     16  CG  HIS A   2      -7.112  23.406  18.671  0.00  0.00    +0.082 A 
ATOM     17  ND1 HIS A   2      -7.072  22.051  18.903  0.00  0.00    -0.227 NA
ATOM     18  CE1 HIS A   2      -6.283  21.479  17.973  0.00  0.00    +0.199 A 
ATOM     19  NE2 HIS A   2      -5.813  22.452  17.200  0.00  0.00    -0.221 NA
ATOM     20  CD2 HIS A   2      -6.314  23.671  17.595  0.00  0.00    +0.115 A 
ENDBRANCH  15  16
ENDBRANCH  12  15
ENDBRANCH   3  12
TORSDOF 8
REMARK  Name = ../refined-set-2016/1b32/1b32_pocket.pdb
REMARK  260 active torsions:
REMARK  status: ('A' for Active; 'I' for Inactive)
REMARK    1  A    between atoms: _1  and  _3
REMARK    2  A    between atoms: _3  and  _4
REMARK    3  A    between atoms: _3  and  _6
REMARK    4  A    between atoms: _6  and  _7
REMARK    5  A    between atoms: _12  and  _14
REMARK    6  A    between atoms: _14  and  _15
REMARK    7  A    between atoms: _14  and  _17
REMARK    8  A    between atoms: _17  and  _18
REMARK    9  A    between atoms: _20  and  _22
REMARK   10  A    between atoms: _22  and  _23
REMARK   11  A    between atoms: _22  and  _25
REMARK   12  A    between atoms: _25  and  _26
REMARK   13  A    between atoms: _26  and  _27
REMARK   14  A    between atoms: _32  and  _34
REMARK   15  A    between atoms: _34  and  _35
REMARK   16  A    between atoms: _34  and  _37
REMARK   17  A    between atoms: _37  and  _38
REMARK   18  A    between atoms: _41  and  _43
REMARK   19  A    between atoms: _43  and  _44
REMARK   20  A    between atoms: _43  and  _46
REMARK   21  A    between atoms: _46  and  _47
REMARK   22  A    between atoms: _47  and  _48
REMARK   23  A    between atoms: _51  and  _53
REMARK   24  A    between atoms: _53  and  _54
REMARK   25  A    between atoms: _56  and  _58
REMARK   26  A    between atoms: _58  and  _59
REMARK   27  A    between atoms: _58  and  _61
REMARK   28  A    between atoms: _65  and  _66
REMARK   29  A    between atoms: _71  and  _73
REMARK   30  A    between atoms: _73  and  _74
REMARK   31  A    between atoms: _73  and  _76
REMARK   32  A    between atoms: _76  and  _77
REMARK   33  A    between atoms: _77  and  _78
REMARK   34  A    between atoms: _81  and  _83
REMARK   35  A    between atoms: _83  and  _84
REMARK   36  A    between atoms: _83  and  _86
REMARK   37  A    between atoms: _86  and  _87
REMARK   38  A    between atoms: _89  and  _91
REMARK   39  A    between atoms: _91  and  _92
REMARK   40  A    between atoms: _91  and  _94
REMARK   41  A    between atoms: _94  and  _95
REMARK   42  A    between atoms: _100  and  _102
REMARK   43  A    between atoms: _102  and  _103
REMARK   44  A    between atoms: _102  and  _105
REMARK   45  A    between atoms: _105  and  _106
REMARK   46  A    between atoms: _106  and  _107
REMARK   47  A    between atoms: _107  and  _108
REMARK   48  A    between atoms: _118  and  _119
REMARK   49  A    between atoms: _124  and  _126
REMARK   50  A    between atoms: _126  and  _127
REMARK   51  A    between atoms: _126  and  _129
REMARK   52  A    between atoms: _129  and  _130
REMARK   53  A    between atoms: _135  and  _136
REMARK   54  A    between atoms: _138  and  _140
REMARK   55  A    between atoms: _140  and  _141
REMARK   56  A    between atoms: _140  and  _143
REMARK   57  A    between atoms: _143  and  _144
REMARK   58  A    between atoms: _149  and  _150
REMARK   59  A    between atoms: _152  and  _154
REMARK   60  A    between atoms: _154  and  _155
REMARK   61  A    between atoms: _154  and  _157
REMARK   62  A    between atoms: _160  and  _162
REMARK   63  A    between atoms: _162  and  _163
REMARK   64  A    between atoms: _162  and  _165
REMARK   65  A    between atoms: _165  and  _166
REMARK   66  A    between atoms: _172  and  _173
REMARK   67  A    between atoms: _178  and  _180
REMARK   68  A    between atoms: _180  and  _181
REMARK   69  A    between atoms: _180  and  _183
REMARK   70  A    between atoms: _183  and  _184
REMARK   71  A    between atoms: _186  and  _188
REMARK   72  A    between atoms: _188  and  _189
REMARK   73  A    between atoms: _188  and  _191
REMARK   74  A    between atoms: _191  and  _192
REMARK   75  A    between atoms: _197  and  _198
REMARK   76  A    between atoms: _200  and  _202
REMARK   77  A    between atoms: _202  and  _203
REMARK   78  A    between atoms: _202  and  _205
REMARK   79  A    between atoms: _205  and  _206
REMARK   80  A    between atoms: _211  and  _213
REMARK   81  A    between atoms: _213  and  _214
REMARK   82  A    between atoms: _213  and  _216
REMARK   83  A    between atoms: _216  and  _217
REMARK   84  A    between atoms: _222  and  _224
REMARK   85  A    between atoms: _224  and  _225
REMARK   86  A    between atoms: _224  and  _227
REMARK   87  A    between atoms: _227  and  _228
REMARK   88  A    between atoms: _228  and  _229
REMARK   89  A    between atoms: _231  and  _233
REMARK   90  A    between atoms: _233  and  _234
REMARK   91  A    between atoms: _233  and  _236
REMARK   92  A    between atoms: _236  and  _237
REMARK   93  A    between atoms: _242  and  _243
REMARK   94  A    between atoms: _245  and  _247
REMARK   95  A    between atoms: _247  and  _248
REMARK   96  A    between atoms: _247  and  _250
REMARK   97  A    between atoms: _250  and  _251
REMARK   98  A    between atoms: _254  and  _256
REMARK   99  A    between atoms: _256  and  _257
REMARK  100  A    between atoms: _256  and  _259
REMARK  101  A    between atoms: _259  and  _260
REMARK  102  A    between atoms: _260  and  _477
REMARK  103  A    between atoms: _261  and  _263
REMARK  104  A    between atoms: _263  and  _264
REMARK  105  A    between atoms: _263  and  _266
REMARK  106  A    between atoms: _266  and  _267
REMARK  107  A    between atoms: _270  and  _272
REMARK  108  A    between atoms: _272  and  _273
REMARK  109  A    between atoms: _272  and  _275
REMARK  110  A    between atoms: _275  and  _276
REMARK  111  A    between atoms: _281  and  _282
REMARK  112  A    between atoms: _284  and  _286
REMARK  113  A    between atoms: _286  and  _287
REMARK  114  A    between atoms: _286  and  _289
REMARK  115  A    between atoms: _289  and  _290
REMARK  116  A    between atoms: _295  and  _296
REMARK  117  A    between atoms: _298  and  _300
REMARK  118  A    between atoms: _300  and  _301
REMARK  119  A    between atoms: _300  and  _303
REMARK  120  A    between atoms: _303  and  _304
REMARK  121  A    between atoms: _304  and  _305
REMARK  122  A    between atoms: _308  and  _310
REMARK  123  A    between atoms: _310  and  _311
REMARK  124  A    between atoms: _310  and  _313
REMARK  125  A    between atoms: _313  and  _314
REMARK  126  A    between atoms: _319  and  _320
REMARK  127  A    between atoms: _322  and  _324
REMARK  128  A    between atoms: _324  and  _325
REMARK  129  A    between atoms: _324  and  _327
REMARK  130  A    between atoms: _327  and  _328
REMARK  131  A    between atoms: _333  and  _335
REMARK  132  A    between atoms: _335  and  _336
REMARK  133  A    between atoms: _335  and  _338
REMARK  134  A    between atoms: _338  and  _339
REMARK  135  A    between atoms: _342  and  _344
REMARK  136  A    between atoms: _344  and  _345
REMARK  137  A    between atoms: _344  and  _347
REMARK  138  A    between atoms: _347  and  _348
REMARK  139  A    between atoms: _353  and  _355
REMARK  140  A    between atoms: _355  and  _356
REMARK  141  A    between atoms: _355  and  _358
REMARK  142  A    between atoms: _358  and  _359
REMARK  143  A    between atoms: _369  and  _371
REMARK  144  A    between atoms: _371  and  _372
REMARK  145  A    between atoms: _371  and  _374
REMARK  146  A    between atoms: _374  and  _375
REMARK  147  A    between atoms: _381  and  _383
REMARK  148  A    between atoms: _383  and  _384
REMARK  149  A    between atoms: _383  and  _386
REMARK  150  A    between atoms: _386  and  _387
REMARK  151  A    between atoms: _390  and  _392
REMARK  152  A    between atoms: _392  and  _393
REMARK  153  A    between atoms: _392  and  _395
REMARK  154  A    between atoms: _395  and  _396
REMARK  155  A    between atoms: _399  and  _401
REMARK  156  A    between atoms: _401  and  _402
REMARK  157  A    between atoms: _401  and  _404
REMARK  158  A    between atoms: _404  and  _405
REMARK  159  A    between atoms: _405  and  _406
REMARK  160  A    between atoms: _406  and  _407
REMARK  161  A    between atoms: _416  and  _418
REMARK  162  A    between atoms: _418  and  _419
REMARK  163  A    between atoms: _418  and  _421
REMARK  164  A    between atoms: _421  and  _422
REMARK  165  A    between atoms: _427  and  _429
REMARK  166  A    between atoms: _429  and  _430
REMARK  167  A    between atoms: _429  and  _432
REMARK  168  A    between atoms: _432  and  _433
REMARK  169  A    between atoms: _433  and  _434
REMARK  170  A    between atoms: _434  and  _435
REMARK  171  A    between atoms: _444  and  _446
REMARK  172  A    between atoms: _446  and  _447
REMARK  173  A    between atoms: _450  and  _452
REMARK  174  A    between atoms: _452  and  _453
REMARK  175  A    between atoms: _455  and  _457
REMARK  176  A    between atoms: _457  and  _458
REMARK  177  A    between atoms: _457  and  _460
REMARK  178  A    between atoms: _460  and  _461
REMARK  179  A    between atoms: _471  and  _473
REMARK  180  A    between atoms: _473  and  _474
REMARK  181  A    between atoms: _473  and  _476
REMARK  182  A    between atoms: _476  and  _477
REMARK  183  A    between atoms: _478  and  _480
REMARK  184  A    between atoms: _480  and  _481
REMARK  185  A    between atoms: _484  and  _486
REMARK  186  A    between atoms: _486  and  _487
REMARK  187  A    between atoms: _486  and  _489
REMARK  188  A    between atoms: _489  and  _490
REMARK  189  A    between atoms: _493  and  _495
REMARK  190  A    between atoms: _495  and  _496
REMARK  191  A    between atoms: _495  and  _498
REMARK  192  A    between atoms: _498  and  _499
REMARK  193  A    between atoms: _504  and  _505
REMARK  194  A    between atoms: _507  and  _509
REMARK  195  A    between atoms: _509  and  _510
REMARK  196  A    between atoms: _509  and  _512
REMARK  197  A    between atoms: _512  and  _513
REMARK  198  A    between atoms: _515  and  _517
REMARK  199  A    between atoms: _517  and  _518
REMARK  200  A    between atoms: _517  and  _520
REMARK  201  A    between atoms: _520  and  _521
REMARK  202  A    between atoms: _527  and  _529
REMARK  203  A    between atoms: _529  and  _530
REMARK  204  A    between atoms: _529  and  _532
REMARK  205  A    between atoms: _532  and  _533
REMARK  206  A    between atoms: _536  and  _538
REMARK  207  A    between atoms: _538  and  _539
REMARK  208  A    between atoms: _538  and  _541
REMARK  209  A    between atoms: _541  and  _542
REMARK  210  A    between atoms: _544  and  _546
REMARK  211  A    between atoms: _546  and  _547
REMARK  212  A    between atoms: _546  and  _549
REMARK  213  A    between atoms: _549  and  _550
REMARK  214  A    between atoms: _555  and  _557
REMARK  215  A    between atoms: _557  and  _558
REMARK  216  A    between atoms: _557  and  _560
REMARK  217  A    between atoms: _560  and  _561
REMARK  218  A    between atoms: _566  and  _568
REMARK  219  A    between atoms: _568  and  _569
REMARK  220  A    between atoms: _568  and  _571
REMARK  221  A    between atoms: _571  and  _572
REMARK  222  A    between atoms: _575  and  _577
REMARK  223  A    between atoms: _577  and  _578
REMARK  224  A    between atoms: _581  and  _583
REMARK  225  A    between atoms: _583  and  _584
REMARK  226  A    between atoms: _583  and  _586
REMARK  227  A    between atoms: _586  and  _587
REMARK  228  A    between atoms: _592  and  _593
REMARK  229  A    between atoms: _595  and  _597
REMARK  230  A    between atoms: _597  and  _598
REMARK  231  A    between atoms: _597  and  _600
REMARK  232  A    between atoms: _600  and  _601
REMARK  233  A    between atoms: _606  and  _607
REMARK  234  A    between atoms: _609  and  _611
REMARK  235  A    between atoms: _611  and  _612
REMARK  236  A    between atoms: _611  and  _614
REMARK  237  A    between atoms: _617  and  _619
REMARK  238  A    between atoms: _619  and  _620
REMARK  239  A    between atoms: _619  and  _622
REMARK  240  A    between atoms: _622  and  _623
REMARK  241  A    between atoms: _628  and  _630
REMARK  242  A    between atoms: _630  and  _631
REMARK  243  A    between atoms: _634  and  _636
REMARK  244  A    between atoms: _636  and  _637
REMARK  245  A    between atoms: _636  and  _639
REMARK  246  A    between atoms: _639  and  _640
REMARK  247  A    between atoms: _640  and  _641
REMARK  248  A    between atoms: _641  and  _642
REMARK  249  A    between atoms: _651  and  _653
REMARK  250  A    between atoms: _653  and  _654
REMARK  251  A    between atoms: _653  and  _656
REMARK  252  A    between atoms: _656  and  _657
REMARK  253  A    between atoms: _660  and  _662
REMARK  254  A    between atoms: _662  and  _663
REMARK  255  A    between atoms: _662  and  _665
REMARK  256  A    between atoms: _665  and  _666
REMARK  257  A    between atoms: _669  and  _671
REMARK  258  A    between atoms: _671  and  _672
REMARK  259  A    between atoms: _671  and  _674
REMARK  260  A    between atoms: _674  and  _675
REMARK                            x       y       z     vdW  Elec       q    Type
REMARK                         _______ _______ _______ _____ _____    ______ ____
ROOT
ATOM      1  CG  TRP A   1       0.422  27.133  12.968  0.00  0.00    -0.002 A 
ATOM      2  CD2 TRP A   1       0.413  25.960  13.756  0.00  0.00    +0.013 A 
ATOM      3  CE3 TRP A   1      -0.311  25.563  14.894  0.00  0.00    +0.001 A 
ATOM      4  CZ3 TRP A   1      -0.035  24.302  15.429  0.00  0.00    +0.000 A 
ATOM      5  CH2 TRP A   1       0.935  23.453  14.878  0.00  0.00    +0.001 A 
ATOM      6  CZ2 TRP A   1       1.670  23.827  13.775  0.00  0.00    +0.017 A 
ATOM      7  CE2 TRP A   1       1.392  25.082  13.239  0.00  0.00    +0.056 A 
ATOM      8  NE1 TRP A   1       1.971  25.715  12.154  0.00  0.00    -0.352 N 
ATOM      9  HE1 TRP A   1       2.742  25.337  11.567  0.00  0.00    +0.166 HD
ATOM     10  CD1 TRP A   1       1.353  26.925  11.987  0.00  0.00    +0.068 A 
ENDROOT
BRANCH   1  11
ATOM     11  CB  TRP A   1      -0.466  28.350  13.043  0.00  0.00    +0.053 C 
BRANCH  11  12
ATOM     12  CA  TRP A   1      -0.360  29.242  14.297  0.00  0.00    +0.137 C 
BRANCH  12  13
ATOM     13  N   TRP A   1      -1.385  30.281  14.198  0.00  0.00    -0.239 NA
ATOM     14  H   TRP A   1      -2.160  30.157  13.516  0.00  0.00    +0.142 HD
ENDBRANCH  12  13
BRANCH  12  15
ATOM     15  C   TRP A   1       1.071  29.695  14.433  0.00  0.00    +0.224 C 
ATOM     16  O   TRP A   1       1.781  29.269  15.364  0.00  0.00    -0.287 OA
ENDBRANCH  12  15
ENDBRANCH  11  12
ENDBRANCH   1  11
TORSDOF 4
REMARK  Name = ../refined-set-2016/1b32/1b32_pocket.pdb
REMARK  260 active torsions:
REMARK  status: ('A' for Active; 'I' for Inactive)
REMARK    1  A    between atoms: _1  and  _3
REMARK    2  A    between atoms: _3  and  _4
REMARK    3  A    between atoms: _3  and  _6
REMARK    4  A    between atoms: _6  and  _7
REMARK    5  A    between atoms: _12  and  _14
REMARK    6  A    between atoms: _14  and  _15
REMARK    7  A    between atoms: _14  and  _17
REMARK    8  A    between atoms: _17  and  _18
REMARK    9  A    between atoms: _20  and  _22
REMARK   10  A    between atoms: _22  and  _23
REMARK   11  A    between atoms: _22  and  _25
REMARK   12  A    between atoms: _25  and  _26
REMARK   13  A    between atoms: _26  and  _27
REMARK   14  A    between atoms: _32  and  _34
REMARK   15  A    between atoms: _34  and  _35
REMARK   16  A    between atoms: _34  and  _37
REMARK   17  A    between atoms: _37  and  _38
REMARK   18  A    between atoms: _41  and  _43
REMARK   19  A    between atoms: _43  and  _44
REMARK   20  A    between atoms: _43  and  _46
REMARK   21  A    between atoms: _46  and  _47
REMARK   22  A    between atoms: _47  and  _48
REMARK   23  A    between atoms: _51  and  _53
REMARK   24  A    between atoms: _53  and  _54
REMARK   25  A    between atoms: _56  and  _58
REMARK   26  A    between atoms: _58  and  _59
REMARK   27  A    between atoms: _58  and  _61
REMARK   28  A    between atoms: _65  and  _66
REMARK   29  A    between atoms: _71  and  _73
REMARK   30  A    between atoms: _73  and  _74
REMARK   31  A    between atoms: _73  and  _76
REMARK   32  A    between atoms: _76  and  _77
REMARK   33  A    between atoms: _77  and  _78
REMARK   34  A    between atoms: _81  and  _83
REMARK   35  A    between atoms: _83  and  _84
REMARK   36  A    between atoms: _83  and  _86
REMARK   37  A    between atoms: _86  and  _87
REMARK   38  A    between atoms: _89  and  _91
REMARK   39  A    between atoms: _91  and  _92
REMARK   40  A    between atoms: _91  and  _94
REMARK   41  A    between atoms: _94  and  _95
REMARK   42  A    between atoms: _100  and  _102
REMARK   43  A    between atoms: _102  and  _103
REMARK   44  A    between atoms: _102  and  _105
REMARK   45  A    between atoms: _105  and  _106
REMARK   46  A    between atoms: _106  and  _107
REMARK   47  A    between atoms: _107  and  _108
REMARK   48  A    between atoms: _118  and  _119
REMARK   49  A    between atoms: _124  and  _126
REMARK   50  A    between atoms: _126  and  _127
REMARK   51  A    between atoms: _126  and  _129
REMARK   52  A    between atoms: _129  and  _130
REMARK   53  A    between atoms: _135  and  _136
REMARK   54  A    between atoms: _138  and  _140
REMARK   55  A    between atoms: _140  and  _141
REMARK   56  A    between atoms: _140  and  _143
REMARK   57  A    between atoms: _143  and  _144
REMARK   58  A    between atoms: _149  and  _150
REMARK   59  A    between atoms: _152  and  _154
REMARK   60  A    between atoms: _154  and  _155
REMARK   61  A    between atoms: _154  and  _157
REMARK   62  A    between atoms: _160  and  _162
REMARK   63  A    between atoms: _162  and  _163
REMARK   64  A    between atoms: _162  and  _165
REMARK   65  A    between atoms: _165  and  _166
REMARK   66  A    between atoms: _172  and  _173
REMARK   67  A    between atoms: _178  and  _180
REMARK   68  A    between atoms: _180  and  _181
REMARK   69  A    between atoms: _180  and  _183
REMARK   70  A    between atoms: _183  and  _184
REMARK   71  A    between atoms: _186  and  _188
REMARK   72  A    between atoms: _188  and  _189
REMARK   73  A    between atoms: _188  and  _191
REMARK   74  A    between atoms: _191  and  _192
REMARK   75  A    between atoms: _197  and  _198
REMARK   76  A    between atoms: _200  and  _202
REMARK   77  A    between atoms: _202  and  _203
REMARK   78  A    between atoms: _202  and  _205
REMARK   79  A    between atoms: _205  and  _206
REMARK   80  A    between atoms: _211  and  _213
REMARK   81  A    between atoms: _213  and  _214
REMARK   82  A    between atoms: _213  and  _216
REMARK   83  A    between atoms: _216  and  _217
REMARK   84  A    between atoms: _222  and  _224
REMARK   85  A    between atoms: _224  and  _225
REMARK   86  A    between atoms: _224  and  _227
REMARK   87  A    between atoms: _227  and  _228
REMARK   88  A    between atoms: _228  and  _229
REMARK   89  A    between atoms: _231  and  _233
REMARK   90  A    between atoms: _233  and  _234
REMARK   91  A    between atoms: _233  and  _236
REMARK   92  A    between atoms: _236  and  _237
REMARK   93  A    between atoms: _242  and  _243
REMARK   94  A    between atoms: _245  and  _247
REMARK   95  A    between atoms: _247  and  _248
REMARK   96  A    between atoms: _247  and  _250
REMARK   97  A    between atoms: _250  and  _251
REMARK   98  A    between atoms: _254  and  _256
REMARK   99  A    between atoms: _256  and  _257
REMARK  100  A    between atoms: _256  and  _259
REMARK  101  A    between atoms: _259  and  _260
REMARK  102  A    between atoms: _260  and  _477
REMARK  103  A    between atoms: _261  and  _263
REMARK  104  A    between atoms: _263  and  _264
REMARK  105  A    between atoms: _263  and  _266
REMARK  106  A    between atoms: _266  and  _267
REMARK  107  A    between atoms: _270  and  _272
REMARK  108  A    between atoms: _272  and  _273
REMARK  109  A    between atoms: _272  and  _275
REMARK  110  A    between atoms: _275  and  _276
REMARK  111  A    between atoms: _281  and  _282
REMARK  112  A    between atoms: _284  and  _286
REMARK  113  A    between atoms: _286  and  _287
REMARK  114  A    between atoms: _286  and  _289
REMARK  115  A    between atoms: _289  and  _290
REMARK  116  A    between atoms: _295  and  _296
REMARK  117  A    between atoms: _298  and  _300
REMARK  118  A    between atoms: _300  and  _301
REMARK  119  A    between atoms: _300  and  _303
REMARK  120  A    between atoms: _303  and  _304
REMARK  121  A    between atoms: _304  and  _305
REMARK  122  A    between atoms: _308  and  _310
REMARK  123  A    between atoms: _310  and  _311
REMARK  124  A    between atoms: _310  and  _313
REMARK  125  A    between atoms: _313  and  _314
REMARK  126  A    between atoms: _319  and  _320
REMARK  127  A    between atoms: _322  and  _324
REMARK  128  A    between atoms: _324  and  _325
REMARK  129  A    between atoms: _324  and  _327
REMARK  130  A    between atoms: _327  and  _328
REMARK  131  A    between atoms: _333  and  _335
REMARK  132  A    between atoms: _335  and  _336
REMARK  133  A    between atoms: _335  and  _338
REMARK  134  A    between atoms: _338  and  _339
REMARK  135  A    between atoms: _342  and  _344
REMARK  136  A    between atoms: _344  and  _345
REMARK  137  A    between atoms: _344  and  _347
REMARK  138  A    between atoms: _347  and  _348
REMARK  139  A    between atoms: _353  and  _355
REMARK  140  A    between atoms: _355  and  _356
REMARK  141  A    between atoms: _355  and  _358
REMARK  142  A    between atoms: _358  and  _359
REMARK  143  A    between atoms: _369  and  _371
REMARK  144  A    between atoms: _371  and  _372
REMARK  145  A    between atoms: _371  and  _374
REMARK  146  A    between atoms: _374  and  _375
REMARK  147  A    between atoms: _381  and  _383
REMARK  148  A    between atoms: _383  and  _384
REMARK  149  A    between atoms: _383  and  _386
REMARK  150  A    between atoms: _386  and  _387
REMARK  151  A    between atoms: _390  and  _392
REMARK  152  A    between atoms: _392  and  _393
REMARK  153  A    between atoms: _392  and  _395
REMARK  154  A    between atoms: _395  and  _396
REMARK  155  A    between atoms: _399  and  _401
REMARK  156  A    between atoms: _401  and  _402
REMARK  157  A    between atoms: _401  and  _404
REMARK  158  A    between atoms: _404  and  _405
REMARK  159  A    between atoms: _405  and  _406
REMARK  160  A    between atoms: _406  and  _407
REMARK  161  A    between atoms: _416  and  _418
REMARK  162  A    between atoms: _418  and  _419
REMARK  163  A    between atoms: _418  and  _421
REMARK  164  A    between atoms: _421  and  _422
REMARK  165  A    between atoms: _427  and  _429
REMARK  166  A    between atoms: _429  and  _430
REMARK  167  A    between atoms: _429  and  _432
REMARK  168  A    between atoms: _432  and  _433
REMARK  169  A    between atoms: _433  and  _434
REMARK  170  A    between atoms: _434  and  _435
REMARK  171  A    between atoms: _444  and  _446
REMARK  172  A    between atoms: _446  and  _447
REMARK  173  A    between atoms: _450  and  _452
REMARK  174  A    between atoms: _452  and  _453
REMARK  175  A    between atoms: _455  and  _457
REMARK  176  A    between atoms: _457  and  _458
REMARK  177  A    between atoms: _457  and  _460
REMARK  178  A    between atoms: _460  and  _461
REMARK  179  A    between atoms: _471  and  _473
REMARK  180  A    between atoms: _473  and  _474
REMARK  181  A    between atoms: _473  and  _476
REMARK  182  A    between atoms: _476  and  _477
REMARK  183  A    between atoms: _478  and  _480
REMARK  184  A    between atoms: _480  and  _481
REMARK  185  A    between atoms: _484  and  _486
REMARK  186  A    between atoms: _486  and  _487
REMARK  187  A    between atoms: _486  and  _489
REMARK  188  A    between atoms: _489  and  _490
REMARK  189  A    between atoms: _493  and  _495
REMARK  190  A    between atoms: _495  and  _496
REMARK  191  A    between atoms: _495  and  _498
REMARK  192  A    between atoms: _498  and  _499
REMARK  193  A    between atoms: _504  and  _505
REMARK  194  A    between atoms: _507  and  _509
REMARK  195  A    between atoms: _509  and  _510
REMARK  196  A    between atoms: _509  and  _512
REMARK  197  A    between atoms: _512  and  _513
REMARK  198  A    between atoms: _515  and  _517
REMARK  199  A    between atoms: _517  and  _518
REMARK  200  A    between atoms: _517  and  _520
REMARK  201  A    between atoms: _520  and  _521
REMARK  202  A    between atoms: _527  and  _529
REMARK  203  A    between atoms: _529  and  _530
REMARK  204  A    between atoms: _529  and  _532
REMARK  205  A    between atoms: _532  and  _533
REMARK  206  A    between atoms: _536  and  _538
REMARK  207  A    between atoms: _538  and  _539
REMARK  208  A    between atoms: _538  and  _541
REMARK  209  A    between atoms: _541  and  _542
REMARK  210  A    between atoms: _544  and  _546
REMARK  211  A    between atoms: _546  and  _547
REMARK  212  A    between atoms: _546  and  _549
REMARK  213  A    between atoms: _549  and  _550
REMARK  214  A    between atoms: _555  and  _557
REMARK  215  A    between atoms: _557  and  _558
REMARK  216  A    between atoms: _557  and  _560
REMARK  217  A    between atoms: _560  and  _561
REMARK  218  A    between atoms: _566  and  _568
REMARK  219  A    between atoms: _568  and  _569
REMARK  220  A    between atoms: _568  and  _571
REMARK  221  A    between atoms: _571  and  _572
REMARK  222  A    between atoms: _575  and  _577
REMARK  223  A    between atoms: _577  and  _578
REMARK  224  A    between atoms: _581  and  _583
REMARK  225  A    between atoms: _583  and  _584
REMARK  226  A    between atoms: _583  and  _586
REMARK  227  A    between atoms: _586  and  _587
REMARK  228  A    between atoms: _592  and  _593
REMARK  229  A    between atoms: _595  and  _597
REMARK  230  A    between atoms: _597  and  _598
REMARK  231  A    between atoms: _597  and  _600
REMARK  232  A    between atoms: _600  and  _601
REMARK  233  A    between atoms: _606  and  _607
REMARK  234  A    between atoms: _609  and  _611
REMARK  235  A    between atoms: _611  and  _612
REMARK  236  A    between atoms: _611  and  _614
REMARK  237  A    between atoms: _617  and  _619
REMARK  238  A    between atoms: _619  and  _620
REMARK  239  A    between atoms: _619  and  _622
REMARK  240  A    between atoms: _622  and  _623
REMARK  241  A    between atoms: _628  and  _630
REMARK  242  A    between atoms: _630  and  _631
REMARK  243  A    between atoms: _634  and  _636
REMARK  244  A    between atoms: _636  and  _637
REMARK  245  A    between atoms: _636  and  _639
REMARK  246  A    between atoms: _639  and  _640
REMARK  247  A    between atoms: _640  and  _641
REMARK  248  A    between atoms: _641  and  _642
REMARK  249  A    between atoms: _651  and  _653
REMARK  250  A    between atoms: _653  and  _654
REMARK  251  A    between atoms: _653  and  _656
REMARK  252  A    between atoms: _656  and  _657
REMARK  253  A    between atoms: _660  and  _662
REMARK  254  A    between atoms: _662  and  _663
REMARK  255  A    between atoms: _662  and  _665
REMARK  256  A    between atoms: _665  and  _666
REMARK  257  A    between atoms: _669  and  _671
REMARK  258  A    between atoms: _671  and  _672
REMARK  259  A    between atoms: _671  and  _674
REMARK  260  A    between atoms: _674  and  _675
REMARK                            x       y       z     vdW  Elec       q    Type
REMARK                         _______ _______ _______ _____ _____    ______ ____
ROOT
ATOM      1  CA  LEU A   2       4.477  28.427  18.214  0.00  0.00    +0.149 C 
ENDROOT
BRANCH   1   4
ATOM      2  C   PHE A   1       2.598  29.715  19.067  0.00  0.00    +0.239 C 
ATOM      3  O   PHE A   1       2.979  29.467  20.223  0.00  0.00    -0.274 OA
ATOM      4  N   LEU A   2       3.278  29.228  18.008  0.00  0.00    -0.297 N 
ATOM      5  H   LEU A   2       2.945  29.425  17.043  0.00  0.00    +0.150 HD
BRANCH   2   6
ATOM      6  CA  PHE A   1       1.360  30.540  18.798  0.00  0.00    +0.149 C 
BRANCH   6   7
ATOM      7  N   PHE A   1       1.557  31.498  17.710  0.00  0.00    -0.238 NA
ATOM      8  H   PHE A   1       0.920  31.461  16.889  0.00  0.00    +0.142 HD
ENDBRANCH   6   7
BRANCH   6   9
ATOM      9  CB  PHE A   1       0.212  29.645  18.313  0.00  0.00    +0.053 C 
BRANCH   9  10
ATOM     10  CG  PHE A   1      -0.081  28.402  19.090  0.00  0.00    -0.020 A 
ATOM     11  CD2 PHE A   1      -0.606  28.480  20.365  0.00  0.00    -0.004 A 
ATOM     12  CE2 PHE A   1      -0.919  27.317  21.058  0.00  0.00    -0.000 A 
ATOM     13  CZ  PHE A   1      -0.691  26.095  20.461  0.00  0.00    -0.000 A 
ATOM     14  CE1 PHE A   1      -0.152  25.980  19.185  0.00  0.00    -0.000 A 
ATOM     15  CD1 PHE A   1       0.137  27.155  18.507  0.00  0.00    -0.004 A 
ENDBRANCH   9  10
ENDBRANCH   6   9
ENDBRANCH   2   6
ENDBRANCH   1   4
BRANCH   1  16
ATOM     16  C   LEU A   2       5.610  29.273  18.796  0.00  0.00    +0.241 C 
ATOM     17  O   LEU A   2       6.365  28.816  19.664  0.00  0.00    -0.273 OA
ATOM     18  N   ASP A   3       5.743  30.496  18.286  0.00  0.00    -0.298 N 
ATOM     19  H   ASP A   3       5.110  30.804  17.520  0.00  0.00    +0.150 HD
BRANCH  18  20
ATOM     20  CA  ASP A   3       6.765  31.410  18.787  0.00  0.00    +0.148 C 
BRANCH  20  21
ATOM     21  C   ASP A   3       6.551  31.685  20.282  0.00  0.00    +0.227 C 
ATOM     22  O   ASP A   3       7.507  31.655  21.039  0.00  0.00    -0.286 OA
ENDBRANCH  20  21
BRANCH  20  23
ATOM     23  CB  ASP A   3       6.727  32.700  17.974  0.00  0.00    +0.142 C 
BRANCH  23  24
ATOM     24  CG  ASP A   3       7.713  33.709  18.534  0.00  0.00    +0.367 C 
ATOM     25  OD2 ASP A   3       7.228  34.746  19.038  0.00  0.00    -0.246 OA
ATOM     26  OD1 ASP A   3       8.924  33.440  18.496  0.00  0.00    -0.246 OA
ENDBRANCH  23  24
ENDBRANCH  20  23
ENDBRANCH  18  20
ENDBRANCH   1  16
BRANCH   1  27
ATOM     27  CB  LEU A   2       4.964  27.734  16.936  0.00  0.00    +0.029 C 
BRANCH  27  28
ATOM     28  CG  LEU A   2       3.918  26.811  16.269  0.00  0.00    +0.002 C 
ATOM     29  CD2 LEU A   2       3.556  25.650  17.215  0.00  0.00    +0.000 C 
ATOM     30  CD1 LEU A   2       4.443  26.305  14.938  0.00  0.00    +0.000 C 
ENDBRANCH  27  28
ENDBRANCH   1  27
TORSDOF 12
REMARK  Name = ../refined-set-2016/1b32/1b32_pocket.pdb
REMARK  260 active torsions:
REMARK  status: ('A' for Active; 'I' for Inactive)
REMARK    1  A    between atoms: _1  and  _3
REMARK    2  A    between atoms: _3  and  _4
REMARK    3  A    between atoms: _3  and  _6
REMARK    4  A    between atoms: _6  and  _7
REMARK    5  A    between atoms: _12  and  _14
REMARK    6  A    between atoms: _14  and  _15
REMARK    7  A    between atoms: _14  and  _17
REMARK    8  A    between atoms: _17  and  _18
REMARK    9  A    between atoms: _20  and  _22
REMARK   10  A    between atoms: _22  and  _23
REMARK   11  A    between atoms: _22  and  _25
REMARK   12  A    between atoms: _25  and  _26
REMARK   13  A    between atoms: _26  and  _27
REMARK   14  A    between atoms: _32  and  _34
REMARK   15  A    between atoms: _34  and  _35
REMARK   16  A    between atoms: _34  and  _37
REMARK   17  A    between atoms: _37  and  _38
REMARK   18  A    between atoms: _41  and  _43
REMARK   19  A    between atoms: _43  and  _44
REMARK   20  A    between atoms: _43  and  _46
REMARK   21  A    between atoms: _46  and  _47
REMARK   22  A    between atoms: _47  and  _48
REMARK   23  A    between atoms: _51  and  _53
REMARK   24  A    between atoms: _53  and  _54
REMARK   25  A    between atoms: _56  and  _58
REMARK   26  A    between atoms: _58  and  _59
REMARK   27  A    between atoms: _58  and  _61
REMARK   28  A    between atoms: _65  and  _66
REMARK   29  A    between atoms: _71  and  _73
REMARK   30  A    between atoms: _73  and  _74
REMARK   31  A    between atoms: _73  and  _76
REMARK   32  A    between atoms: _76  and  _77
REMARK   33  A    between atoms: _77  and  _78
REMARK   34  A    between atoms: _81  and  _83
REMARK   35  A    between atoms: _83  and  _84
REMARK   36  A    between atoms: _83  and  _86
REMARK   37  A    between atoms: _86  and  _87
REMARK   38  A    between atoms: _89  and  _91
REMARK   39  A    between atoms: _91  and  _92
REMARK   40  A    between atoms: _91  and  _94
REMARK   41  A    between atoms: _94  and  _95
REMARK   42  A    between atoms: _100  and  _102
REMARK   43  A    between atoms: _102  and  _103
REMARK   44  A    between atoms: _102  and  _105
REMARK   45  A    between atoms: _105  and  _106
REMARK   46  A    between atoms: _106  and  _107
REMARK   47  A    between atoms: _107  and  _108
REMARK   48  A    between atoms: _118  and  _119
REMARK   49  A    between atoms: _124  and  _126
REMARK   50  A    between atoms: _126  and  _127
REMARK   51  A    between atoms: _126  and  _129
REMARK   52  A    between atoms: _129  and  _130
REMARK   53  A    between atoms: _135  and  _136
REMARK   54  A    between atoms: _138  and  _140
REMARK   55  A    between atoms: _140  and  _141
REMARK   56  A    between atoms: _140  and  _143
REMARK   57  A    between atoms: _143  and  _144
REMARK   58  A    between atoms: _149  and  _150
REMARK   59  A    between atoms: _152  and  _154
REMARK   60  A    between atoms: _154  and  _155
REMARK   61  A    between atoms: _154  and  _157
REMARK   62  A    between atoms: _160  and  _162
REMARK   63  A    between atoms: _162  and  _163
REMARK   64  A    between atoms: _162  and  _165
REMARK   65  A    between atoms: _165  and  _166
REMARK   66  A    between atoms: _172  and  _173
REMARK   67  A    between atoms: _178  and  _180
REMARK   68  A    between atoms: _180  and  _181
REMARK   69  A    between atoms: _180  and  _183
REMARK   70  A    between atoms: _183  and  _184
REMARK   71  A    between atoms: _186  and  _188
REMARK   72  A    between atoms: _188  and  _189
REMARK   73  A    between atoms: _188  and  _191
REMARK   74  A    between atoms: _191  and  _192
REMARK   75  A    between atoms: _197  and  _198
REMARK   76  A    between atoms: _200  and  _202
REMARK   77  A    between atoms: _202  and  _203
REMARK   78  A    between atoms: _202  and  _205
REMARK   79  A    between atoms: _205  and  _206
REMARK   80  A    between atoms: _211  and  _213
REMARK   81  A    between atoms: _213  and  _214
REMARK   82  A    between atoms: _213  and  _216
REMARK   83  A    between atoms: _216  and  _217
REMARK   84  A    between atoms: _222  and  _224
REMARK   85  A    between atoms: _224  and  _225
REMARK   86  A    between atoms: _224  and  _227
REMARK   87  A    between atoms: _227  and  _228
REMARK   88  A    between atoms: _228  and  _229
REMARK   89  A    between atoms: _231  and  _233
REMARK   90  A    between atoms: _233  and  _234
REMARK   91  A    between atoms: _233  and  _236
REMARK   92  A    between atoms: _236  and  _237
REMARK   93  A    between atoms: _242  and  _243
REMARK   94  A    between atoms: _245  and  _247
REMARK   95  A    between atoms: _247  and  _248
REMARK   96  A    between atoms: _247  and  _250
REMARK   97  A    between atoms: _250  and  _251
REMARK   98  A    between atoms: _254  and  _256
REMARK   99  A    between atoms: _256  and  _257
REMARK  100  A    between atoms: _256  and  _259
REMARK  101  A    between atoms: _259  and  _260
REMARK  102  A    between atoms: _260  and  _477
REMARK  103  A    between atoms: _261  and  _263
REMARK  104  A    between atoms: _263  and  _264
REMARK  105  A    between atoms: _263  and  _266
REMARK  106  A    between atoms: _266  and  _267
REMARK  107  A    between atoms: _270  and  _272
REMARK  108  A    between atoms: _272  and  _273
REMARK  109  A    between atoms: _272  and  _275
REMARK  110  A    between atoms: _275  and  _276
REMARK  111  A    between atoms: _281  and  _282
REMARK  112  A    between atoms: _284  and  _286
REMARK  113  A    between atoms: _286  and  _287
REMARK  114  A    between atoms: _286  and  _289
REMARK  115  A    between atoms: _289  and  _290
REMARK  116  A    between atoms: _295  and  _296
REMARK  117  A    between atoms: _298  and  _300
REMARK  118  A    between atoms: _300  and  _301
REMARK  119  A    between atoms: _300  and  _303
REMARK  120  A    between atoms: _303  and  _304
REMARK  121  A    between atoms: _304  and  _305
REMARK  122  A    between atoms: _308  and  _310
REMARK  123  A    between atoms: _310  and  _311
REMARK  124  A    between atoms: _310  and  _313
REMARK  125  A    between atoms: _313  and  _314
REMARK  126  A    between atoms: _319  and  _320
REMARK  127  A    between atoms: _322  and  _324
REMARK  128  A    between atoms: _324  and  _325
REMARK  129  A    between atoms: _324  and  _327
REMARK  130  A    between atoms: _327  and  _328
REMARK  131  A    between atoms: _333  and  _335
REMARK  132  A    between atoms: _335  and  _336
REMARK  133  A    between atoms: _335  and  _338
REMARK  134  A    between atoms: _338  and  _339
REMARK  135  A    between atoms: _342  and  _344
REMARK  136  A    between atoms: _344  and  _345
REMARK  137  A    between atoms: _344  and  _347
REMARK  138  A    between atoms: _347  and  _348
REMARK  139  A    between atoms: _353  and  _355
REMARK  140  A    between atoms: _355  and  _356
REMARK  141  A    between atoms: _355  and  _358
REMARK  142  A    between atoms: _358  and  _359
REMARK  143  A    between atoms: _369  and  _371
REMARK  144  A    between atoms: _371  and  _372
REMARK  145  A    between atoms: _371  and  _374
REMARK  146  A    between atoms: _374  and  _375
REMARK  147  A    between atoms: _381  and  _383
REMARK  148  A    between atoms: _383  and  _384
REMARK  149  A    between atoms: _383  and  _386
REMARK  150  A    between atoms: _386  and  _387
REMARK  151  A    between atoms: _390  and  _392
REMARK  152  A    between atoms: _392  and  _393
REMARK  153  A    between atoms: _392  and  _395
REMARK  154  A    between atoms: _395  and  _396
REMARK  155  A    between atoms: _399  and  _401
REMARK  156  A    between atoms: _401  and  _402
REMARK  157  A    between atoms: _401  and  _404
REMARK  158  A    between atoms: _404  and  _405
REMARK  159  A    between atoms: _405  and  _406
REMARK  160  A    between atoms: _406  and  _407
REMARK  161  A    between atoms: _416  and  _418
REMARK  162  A    between atoms: _418  and  _419
REMARK  163  A    between atoms: _418  and  _421
REMARK  164  A    between atoms: _421  and  _422
REMARK  165  A    between atoms: _427  and  _429
REMARK  166  A    between atoms: _429  and  _430
REMARK  167  A    between atoms: _429  and  _432
REMARK  168  A    between atoms: _432  and  _433
REMARK  169  A    between atoms: _433  and  _434
REMARK  170  A    between atoms: _434  and  _435
REMARK  171  A    between atoms: _444  and  _446
REMARK  172  A    between atoms: _446  and  _447
REMARK  173  A    between atoms: _450  and  _452
REMARK  174  A    between atoms: _452  and  _453
REMARK  175  A    between atoms: _455  and  _457
REMARK  176  A    between atoms: _457  and  _458
REMARK  177  A    between atoms: _457  and  _460
REMARK  178  A    between atoms: _460  and  _461
REMARK  179  A    between atoms: _471  and  _473
REMARK  180  A    between atoms: _473  and  _474
REMARK  181  A    between atoms: _473  and  _476
REMARK  182  A    between atoms: _476  and  _477
REMARK  183  A    between atoms: _478  and  _480
REMARK  184  A    between atoms: _480  and  _481
REMARK  185  A    between atoms: _484  and  _486
REMARK  186  A    between atoms: _486  and  _487
REMARK  187  A    between atoms: _486  and  _489
REMARK  188  A    between atoms: _489  and  _490
REMARK  189  A    between atoms: _493  and  _495
REMARK  190  A    between atoms: _495  and  _496
REMARK  191  A    between atoms: _495  and  _498
REMARK  192  A    between atoms: _498  and  _499
REMARK  193  A    between atoms: _504  and  _505
REMARK  194  A    between atoms: _507  and  _509
REMARK  195  A    between atoms: _509  and  _510
REMARK  196  A    between atoms: _509  and  _512
REMARK  197  A    between atoms: _512  and  _513
REMARK  198  A    between atoms: _515  and  _517
REMARK  199  A    between atoms: _517  and  _518
REMARK  200  A    between atoms: _517  and  _520
REMARK  201  A    between atoms: _520  and  _521
REMARK  202  A    between atoms: _527  and  _529
REMARK  203  A    between atoms: _529  and  _530
REMARK  204  A    between atoms: _529  and  _532
REMARK  205  A    between atoms: _532  and  _533
REMARK  206  A    between atoms: _536  and  _538
REMARK  207  A    between atoms: _538  and  _539
REMARK  208  A    between atoms: _538  and  _541
REMARK  209  A    between atoms: _541  and  _542
REMARK  210  A    between atoms: _544  and  _546
REMARK  211  A    between atoms: _546  and  _547
REMARK  212  A    between atoms: _546  and  _549
REMARK  213  A    between atoms: _549  and  _550
REMARK  214  A    between atoms: _555  and  _557
REMARK  215  A    between atoms: _557  and  _558
REMARK  216  A    between atoms: _557  and  _560
REMARK  217  A    between atoms: _560  and  _561
REMARK  218  A    between atoms: _566  and  _568
REMARK  219  A    between atoms: _568  and  _569
REMARK  220  A    between atoms: _568  and  _571
REMARK  221  A    between atoms: _571  and  _572
REMARK  222  A    between atoms: _575  and  _577
REMARK  223  A    between atoms: _577  and  _578
REMARK  224  A    between atoms: _581  and  _583
REMARK  225  A    between atoms: _583  and  _584
REMARK  226  A    between atoms: _583  and  _586
REMARK  227  A    between atoms: _586  and  _587
REMARK  228  A    between atoms: _592  and  _593
REMARK  229  A    between atoms: _595  and  _597
REMARK  230  A    between atoms: _597  and  _598
REMARK  231  A    between atoms: _597  and  _600
REMARK  232  A    between atoms: _600  and  _601
REMARK  233  A    between atoms: _606  and  _607
REMARK  234  A    between atoms: _609  and  _611
REMARK  235  A    between atoms: _611  and  _612
REMARK  236  A    between atoms: _611  and  _614
REMARK  237  A    between atoms: _617  and  _619
REMARK  238  A    between atoms: _619  and  _620
REMARK  239  A    between atoms: _619  and  _622
REMARK  240  A    between atoms: _622  and  _623
REMARK  241  A    between atoms: _628  and  _630
REMARK  242  A    between atoms: _630  and  _631
REMARK  243  A    between atoms: _634  and  _636
REMARK  244  A    between atoms: _636  and  _637
REMARK  245  A    between atoms: _636  and  _639
REMARK  246  A    between atoms: _639  and  _640
REMARK  247  A    between atoms: _640  and  _641
REMARK  248  A    between atoms: _641  and  _642
REMARK  249  A    between atoms: _651  and  _653
REMARK  250  A    between atoms: _653  and  _654
REMARK  251  A    between atoms: _653  and  _656
REMARK  252  A    between atoms: _656  and  _657
REMARK  253  A    between atoms: _660  and  _662
REMARK  254  A    between atoms: _662  and  _663
REMARK  255  A    between atoms: _662  and  _665
REMARK  256  A    between atoms: _665  and  _666
REMARK  257  A    between atoms: _669  and  _671
REMARK  258  A    between atoms: _671  and  _672
REMARK  259  A    between atoms: _671  and  _674
REMARK  260  A    between atoms: _674  and  _675
REMARK                            x       y       z     vdW  Elec       q    Type
REMARK                         _______ _______ _______ _____ _____    ______ ____
ROOT
ATOM      1  CA  ARG A   1       5.529  28.656  23.350  0.00  0.00    +0.145 C 
ENDROOT
BRANCH   1   2
ATOM      2  C   ARG A   1       7.040  28.528  23.428  0.00  0.00    +0.238 C 
ATOM      3  O   ARG A   1       7.564  28.248  24.511  0.00  0.00    -0.274 OA
ATOM      4  N   HIS A   2       7.771  28.748  22.330  0.00  0.00    -0.298 N 
ATOM      5  H   HIS A   2       7.302  28.929  21.419  0.00  0.00    +0.150 HD
BRANCH   4   6
ATOM      6  CA  HIS A   2       9.224  28.734  22.413  0.00  0.00    +0.143 C 
BRANCH   6   7
ATOM      7  C   HIS A   2       9.717  29.856  23.343  0.00  0.00    +0.227 C 
ATOM      8  O   HIS A   2      10.629  29.585  24.149  0.00  0.00    -0.286 OA
ENDBRANCH   6   7
BRANCH   6   9
ATOM      9  CB  HIS A   2       9.887  28.883  21.037  0.00  0.00    +0.075 C 
BRANCH   9  10
ATOM     10  CG  HIS A   2       9.866  27.566  20.294  0.00  0.00    +0.082 A 
ATOM     11  ND1 HIS A   2      10.674  26.510  20.642  0.00  0.00    -0.227 NA
ATOM     12  CE1 HIS A   2      10.440  25.487  19.821  0.00  0.00    +0.199 A 
ATOM     13  NE2 HIS A   2       9.510  25.870  18.961  0.00  0.00    -0.221 NA
ATOM     14  CD2 HIS A   2       9.115  27.159  19.236  0.00  0.00    +0.115 A 
ENDBRANCH   9  10
ENDBRANCH   6   9
ENDBRANCH   4   6
ENDBRANCH   1   2
BRANCH   1  15
ATOM     15  N   ARG A   1       5.135  29.810  22.529  0.00  0.00    -0.238 NA
ATOM     16  H   ARG A   1       4.654  29.670  21.617  0.00  0.00    +0.142 HD
ENDBRANCH   1  15
BRANCH   1  17
ATOM     17  CB  ARG A   1       4.863  27.380  22.786  0.00  0.00    +0.030 C 
BRANCH  17  18
ATOM     18  CG  ARG A   1       3.342  27.476  22.946  0.00  0.00    +0.045 C 
BRANCH  18  19
ATOM     19  CD  ARG A   1       2.563  26.424  22.166  0.00  0.00    +0.174 C 
BRANCH  19  20
ATOM     20  NE  ARG A   1       3.051  25.075  22.497  0.00  0.00    -0.265 N 
ATOM     21  HE  ARG A   1       3.583  24.951  23.382  0.00  0.00    +0.259 HD
ATOM     22  CZ  ARG A   1       2.854  24.008  21.735  0.00  0.00    +0.342 C 
ATOM     23  NH2 ARG A   1       3.333  22.813  22.121  0.00  0.00    -0.292 N 
ATOM     24 HH21 ARG A   1       3.857  22.727  23.015  0.00  0.00    +0.255 HD
ATOM     25 HH22 ARG A   1       3.180  21.974  21.525  0.00  0.00    +0.255 HD
ATOM     26  NH1 ARG A   1       2.232  24.114  20.573  0.00  0.00    -0.292 N 
ATOM     27 HH11 ARG A   1       1.892  25.041  20.248  0.00  0.00    +0.255 HD
ATOM     28 HH12 ARG A   1       2.083  23.270  19.984  0.00  0.00    +0.255 HD
ENDBRANCH  19  20
ENDBRANCH  18  19
ENDBRANCH  17  18
ENDBRANCH   1  17
TORSDOF 10
REMARK  Name = ../refined-set-2016/1b32/1b32_pocket.pdb
REMARK  260 active torsions:
REMARK  status: ('A' for Active; 'I' for Inactive)
REMARK    1  A    between atoms: _1  and  _3
REMARK    2  A    between atoms: _3  and  _4
REMARK    3  A    between atoms: _3  and  _6
REMARK    4  A    between atoms: _6  and  _7
REMARK    5  A    between atoms: _12  and  _14
REMARK    6  A    between atoms: _14  and  _15
REMARK    7  A    between atoms: _14  and  _17
REMARK    8  A    between atoms: _17  and  _18
REMARK    9  A    between atoms: _20  and  _22
REMARK   10  A    between atoms: _22  and  _23
REMARK   11  A    between atoms: _22  and  _25
REMARK   12  A    between atoms: _25  and  _26
REMARK   13  A    between atoms: _26  and  _27
REMARK   14  A    between atoms: _32  and  _34
REMARK   15  A    between atoms: _34  and  _35
REMARK   16  A    between atoms: _34  and  _37
REMARK   17  A    between atoms: _37  and  _38
REMARK   18  A    between atoms: _41  and  _43
REMARK   19  A    between atoms: _43  and  _44
REMARK   20  A    between atoms: _43  and  _46
REMARK   21  A    between atoms: _46  and  _47
REMARK   22  A    between atoms: _47  and  _48
REMARK   23  A    between atoms: _51  and  _53
REMARK   24  A    between atoms: _53  and  _54
REMARK   25  A    between atoms: _56  and  _58
REMARK   26  A    between atoms: _58  and  _59
REMARK   27  A    between atoms: _58  and  _61
REMARK   28  A    between atoms: _65  and  _66
REMARK   29  A    between atoms: _71  and  _73
REMARK   30  A    between atoms: _73  and  _74
REMARK   31  A    between atoms: _73  and  _76
REMARK   32  A    between atoms: _76  and  _77
REMARK   33  A    between atoms: _77  and  _78
REMARK   34  A    between atoms: _81  and  _83
REMARK   35  A    between atoms: _83  and  _84
REMARK   36  A    between atoms: _83  and  _86
REMARK   37  A    between atoms: _86  and  _87
REMARK   38  A    between atoms: _89  and  _91
REMARK   39  A    between atoms: _91  and  _92
REMARK   40  A    between atoms: _91  and  _94
REMARK   41  A    between atoms: _94  and  _95
REMARK   42  A    between atoms: _100  and  _102
REMARK   43  A    between atoms: _102  and  _103
REMARK   44  A    between atoms: _102  and  _105
REMARK   45  A    between atoms: _105  and  _106
REMARK   46  A    between atoms: _106  and  _107
REMARK   47  A    between atoms: _107  and  _108
REMARK   48  A    between atoms: _118  and  _119
REMARK   49  A    between atoms: _124  and  _126
REMARK   50  A    between atoms: _126  and  _127
REMARK   51  A    between atoms: _126  and  _129
REMARK   52  A    between atoms: _129  and  _130
REMARK   53  A    between atoms: _135  and  _136
REMARK   54  A    between atoms: _138  and  _140
REMARK   55  A    between atoms: _140  and  _141
REMARK   56  A    between atoms: _140  and  _143
REMARK   57  A    between atoms: _143  and  _144
REMARK   58  A    between atoms: _149  and  _150
REMARK   59  A    between atoms: _152  and  _154
REMARK   60  A    between atoms: _154  and  _155
REMARK   61  A    between atoms: _154  and  _157
REMARK   62  A    between atoms: _160  and  _162
REMARK   63  A    between atoms: _162  and  _163
REMARK   64  A    between atoms: _162  and  _165
REMARK   65  A    between atoms: _165  and  _166
REMARK   66  A    between atoms: _172  and  _173
REMARK   67  A    between atoms: _178  and  _180
REMARK   68  A    between atoms: _180  and  _181
REMARK   69  A    between atoms: _180  and  _183
REMARK   70  A    between atoms: _183  and  _184
REMARK   71  A    between atoms: _186  and  _188
REMARK   72  A    between atoms: _188  and  _189
REMARK   73  A    between atoms: _188  and  _191
REMARK   74  A    between atoms: _191  and  _192
REMARK   75  A    between atoms: _197  and  _198
REMARK   76  A    between atoms: _200  and  _202
REMARK   77  A    between atoms: _202  and  _203
REMARK   78  A    between atoms: _202  and  _205
REMARK   79  A    between atoms: _205  and  _206
REMARK   80  A    between atoms: _211  and  _213
REMARK   81  A    between atoms: _213  and  _214
REMARK   82  A    between atoms: _213  and  _216
REMARK   83  A    between atoms: _216  and  _217
REMARK   84  A    between atoms: _222  and  _224
REMARK   85  A    between atoms: _224  and  _225
REMARK   86  A    between atoms: _224  and  _227
REMARK   87  A    between atoms: _227  and  _228
REMARK   88  A    between atoms: _228  and  _229
REMARK   89  A    between atoms: _231  and  _233
REMARK   90  A    between atoms: _233  and  _234
REMARK   91  A    between atoms: _233  and  _236
REMARK   92  A    between atoms: _236  and  _237
REMARK   93  A    between atoms: _242  and  _243
REMARK   94  A    between atoms: _245  and  _247
REMARK   95  A    between atoms: _247  and  _248
REMARK   96  A    between atoms: _247  and  _250
REMARK   97  A    between atoms: _250  and  _251
REMARK   98  A    between atoms: _254  and  _256
REMARK   99  A    between atoms: _256  and  _257
REMARK  100  A    between atoms: _256  and  _259
REMARK  101  A    between atoms: _259  and  _260
REMARK  102  A    between atoms: _260  and  _477
REMARK  103  A    between atoms: _261  and  _263
REMARK  104  A    between atoms: _263  and  _264
REMARK  105  A    between atoms: _263  and  _266
REMARK  106  A    between atoms: _266  and  _267
REMARK  107  A    between atoms: _270  and  _272
REMARK  108  A    between atoms: _272  and  _273
REMARK  109  A    between atoms: _272  and  _275
REMARK  110  A    between atoms: _275  and  _276
REMARK  111  A    between atoms: _281  and  _282
REMARK  112  A    between atoms: _284  and  _286
REMARK  113  A    between atoms: _286  and  _287
REMARK  114  A    between atoms: _286  and  _289
REMARK  115  A    between atoms: _289  and  _290
REMARK  116  A    between atoms: _295  and  _296
REMARK  117  A    between atoms: _298  and  _300
REMARK  118  A    between atoms: _300  and  _301
REMARK  119  A    between atoms: _300  and  _303
REMARK  120  A    between atoms: _303  and  _304
REMARK  121  A    between atoms: _304  and  _305
REMARK  122  A    between atoms: _308  and  _310
REMARK  123  A    between atoms: _310  and  _311
REMARK  124  A    between atoms: _310  and  _313
REMARK  125  A    between atoms: _313  and  _314
REMARK  126  A    between atoms: _319  and  _320
REMARK  127  A    between atoms: _322  and  _324
REMARK  128  A    between atoms: _324  and  _325
REMARK  129  A    between atoms: _324  and  _327
REMARK  130  A    between atoms: _327  and  _328
REMARK  131  A    between atoms: _333  and  _335
REMARK  132  A    between atoms: _335  and  _336
REMARK  133  A    between atoms: _335  and  _338
REMARK  134  A    between atoms: _338  and  _339
REMARK  135  A    between atoms: _342  and  _344
REMARK  136  A    between atoms: _344  and  _345
REMARK  137  A    between atoms: _344  and  _347
REMARK  138  A    between atoms: _347  and  _348
REMARK  139  A    between atoms: _353  and  _355
REMARK  140  A    between atoms: _355  and  _356
REMARK  141  A    between atoms: _355  and  _358
REMARK  142  A    between atoms: _358  and  _359
REMARK  143  A    between atoms: _369  and  _371
REMARK  144  A    between atoms: _371  and  _372
REMARK  145  A    between atoms: _371  and  _374
REMARK  146  A    between atoms: _374  and  _375
REMARK  147  A    between atoms: _381  and  _383
REMARK  148  A    between atoms: _383  and  _384
REMARK  149  A    between atoms: _383  and  _386
REMARK  150  A    between atoms: _386  and  _387
REMARK  151  A    between atoms: _390  and  _392
REMARK  152  A    between atoms: _392  and  _393
REMARK  153  A    between atoms: _392  and  _395
REMARK  154  A    between atoms: _395  and  _396
REMARK  155  A    between atoms: _399  and  _401
REMARK  156  A    between atoms: _401  and  _402
REMARK  157  A    between atoms: _401  and  _404
REMARK  158  A    between atoms: _404  and  _405
REMARK  159  A    between atoms: _405  and  _406
REMARK  160  A    between atoms: _406  and  _407
REMARK  161  A    between atoms: _416  and  _418
REMARK  162  A    between atoms: _418  and  _419
REMARK  163  A    between atoms: _418  and  _421
REMARK  164  A    between atoms: _421  and  _422
REMARK  165  A    between atoms: _427  and  _429
REMARK  166  A    between atoms: _429  and  _430
REMARK  167  A    between atoms: _429  and  _432
REMARK  168  A    between atoms: _432  and  _433
REMARK  169  A    between atoms: _433  and  _434
REMARK  170  A    between atoms: _434  and  _435
REMARK  171  A    between atoms: _444  and  _446
REMARK  172  A    between atoms: _446  and  _447
REMARK  173  A    between atoms: _450  and  _452
REMARK  174  A    between atoms: _452  and  _453
REMARK  175  A    between atoms: _455  and  _457
REMARK  176  A    between atoms: _457  and  _458
REMARK  177  A    between atoms: _457  and  _460
REMARK  178  A    between atoms: _460  and  _461
REMARK  179  A    between atoms: _471  and  _473
REMARK  180  A    between atoms: _473  and  _474
REMARK  181  A    between atoms: _473  and  _476
REMARK  182  A    between atoms: _476  and  _477
REMARK  183  A    between atoms: _478  and  _480
REMARK  184  A    between atoms: _480  and  _481
REMARK  185  A    between atoms: _484  and  _486
REMARK  186  A    between atoms: _486  and  _487
REMARK  187  A    between atoms: _486  and  _489
REMARK  188  A    between atoms: _489  and  _490
REMARK  189  A    between atoms: _493  and  _495
REMARK  190  A    between atoms: _495  and  _496
REMARK  191  A    between atoms: _495  and  _498
REMARK  192  A    between atoms: _498  and  _499
REMARK  193  A    between atoms: _504  and  _505
REMARK  194  A    between atoms: _507  and  _509
REMARK  195  A    between atoms: _509  and  _510
REMARK  196  A    between atoms: _509  and  _512
REMARK  197  A    between atoms: _512  and  _513
REMARK  198  A    between atoms: _515  and  _517
REMARK  199  A    between atoms: _517  and  _518
REMARK  200  A    between atoms: _517  and  _520
REMARK  201  A    between atoms: _520  and  _521
REMARK  202  A    between atoms: _527  and  _529
REMARK  203  A    between atoms: _529  and  _530
REMARK  204  A    between atoms: _529  and  _532
REMARK  205  A    between atoms: _532  and  _533
REMARK  206  A    between atoms: _536  and  _538
REMARK  207  A    between atoms: _538  and  _539
REMARK  208  A    between atoms: _538  and  _541
REMARK  209  A    between atoms: _541  and  _542
REMARK  210  A    between atoms: _544  and  _546
REMARK  211  A    between atoms: _546  and  _547
REMARK  212  A    between atoms: _546  and  _549
REMARK  213  A    between atoms: _549  and  _550
REMARK  214  A    between atoms: _555  and  _557
REMARK  215  A    between atoms: _557  and  _558
REMARK  216  A    between atoms: _557  and  _560
REMARK  217  A    between atoms: _560  and  _561
REMARK  218  A    between atoms: _566  and  _568
REMARK  219  A    between atoms: _568  and  _569
REMARK  220  A    between atoms: _568  and  _571
REMARK  221  A    between atoms: _571  and  _572
REMARK  222  A    between atoms: _575  and  _577
REMARK  223  A    between atoms: _577  and  _578
REMARK  224  A    between atoms: _581  and  _583
REMARK  225  A    between atoms: _583  and  _584
REMARK  226  A    between atoms: _583  and  _586
REMARK  227  A    between atoms: _586  and  _587
REMARK  228  A    between atoms: _592  and  _593
REMARK  229  A    between atoms: _595  and  _597
REMARK  230  A    between atoms: _597  and  _598
REMARK  231  A    between atoms: _597  and  _600
REMARK  232  A    between atoms: _600  and  _601
REMARK  233  A    between atoms: _606  and  _607
REMARK  234  A    between atoms: _609  and  _611
REMARK  235  A    between atoms: _611  and  _612
REMARK  236  A    between atoms: _611  and  _614
REMARK  237  A    between atoms: _617  and  _619
REMARK  238  A    between atoms: _619  and  _620
REMARK  239  A    between atoms: _619  and  _622
REMARK  240  A    between atoms: _622  and  _623
REMARK  241  A    between atoms: _628  and  _630
REMARK  242  A    between atoms: _630  and  _631
REMARK  243  A    between atoms: _634  and  _636
REMARK  244  A    between atoms: _636  and  _637
REMARK  245  A    between atoms: _636  and  _639
REMARK  246  A    between atoms: _639  and  _640
REMARK  247  A    between atoms: _640  and  _641
REMARK  248  A    between atoms: _641  and  _642
REMARK  249  A    between atoms: _651  and  _653
REMARK  250  A    between atoms: _653  and  _654
REMARK  251  A    between atoms: _653  and  _656
REMARK  252  A    between atoms: _656  and  _657
REMARK  253  A    between atoms: _660  and  _662
REMARK  254  A    between atoms: _662  and  _663
REMARK  255  A    between atoms: _662  and  _665
REMARK  256  A    between atoms: _665  and  _666
REMARK  257  A    between atoms: _669  and  _671
REMARK  258  A    between atoms: _671  and  _672
REMARK  259  A    between atoms: _671  and  _674
REMARK  260  A    between atoms: _674  and  _675
REMARK                            x       y       z     vdW  Elec       q    Type
REMARK                         _______ _______ _______ _____ _____    ______ ____
ROOT
ATOM      1  C   SER A   1       9.893  11.790  19.425  0.00  0.00    +0.241 C 
ATOM      2  N   PHE A   2       9.235  11.183  20.417  0.00  0.00    -0.298 N 
ATOM      3  H   PHE A   2       9.220  10.144  20.461  0.00  0.00    +0.150 HD
ATOM      4  O   SER A   1       9.824  12.997  19.215  0.00  0.00    -0.274 OA
ENDROOT
BRANCH   1   5
ATOM      5  CA  SER A   1      10.768  10.877  18.559  0.00  0.00    +0.174 C 
BRANCH   5   6
ATOM      6  N   SER A   1      11.289   9.763  19.348  0.00  0.00    -0.236 NA
ATOM      7  H   SER A   1      11.047   8.790  19.071  0.00  0.00    +0.142 HD
ENDBRANCH   5   6
BRANCH   5   8
ATOM      8  CB  SER A   1       9.940  10.332  17.380  0.00  0.00    +0.163 C 
BRANCH   8   9
ATOM      9  OG  SER A   1       9.667  11.446  16.533  0.00  0.00    -0.380 OA
ATOM     10  H   SER A   1      10.520  11.836  16.218  0.00  0.00    +0.211 HD
ENDBRANCH   8   9
ENDBRANCH   5   8
ENDBRANCH   1   5
BRANCH   2  11
ATOM     11  CA  PHE A   2       8.543  11.949  21.432  0.00  0.00    +0.141 C 
BRANCH  11  12
ATOM     12  C   PHE A   2       9.469  12.326  22.589  0.00  0.00    +0.227 C 
ATOM     13  O   PHE A   2       9.575  13.488  22.981  0.00  0.00    -0.286 OA
ENDBRANCH  11  12
BRANCH  11  14
ATOM     14  CB  PHE A   2       7.374  11.128  22.011  0.00  0.00    +0.054 C 
BRANCH  14  15
ATOM     15  CG  PHE A   2       6.101  11.265  21.195  0.00  0.00    -0.020 A 
ATOM     16  CD2 PHE A   2       5.070  12.049  21.670  0.00  0.00    -0.004 A 
ATOM     17  CE2 PHE A   2       3.910  12.216  20.925  0.00  0.00    -0.000 A 
ATOM     18  CZ  PHE A   2       3.761  11.606  19.690  0.00  0.00    -0.000 A 
ATOM     19  CE1 PHE A   2       4.809  10.820  19.230  0.00  0.00    -0.000 A 
ATOM     20  CD1 PHE A   2       5.983  10.659  19.972  0.00  0.00    -0.004 A 
ENDBRANCH  14  15
ENDBRANCH  11  14
ENDBRANCH   2  11
TORSDOF 8
REMARK  Name = ../refined-set-2016/1b32/1b32_pocket.pdb
REMARK  260 active torsions:
REMARK  status: ('A' for Active; 'I' for Inactive)
REMARK    1  A    between atoms: _1  and  _3
REMARK    2  A    between atoms: _3  and  _4
REMARK    3  A    between atoms: _3  and  _6
REMARK    4  A    between atoms: _6  and  _7
REMARK    5  A    between atoms: _12  and  _14
REMARK    6  A    between atoms: _14  and  _15
REMARK    7  A    between atoms: _14  and  _17
REMARK    8  A    between atoms: _17  and  _18
REMARK    9  A    between atoms: _20  and  _22
REMARK   10  A    between atoms: _22  and  _23
REMARK   11  A    between atoms: _22  and  _25
REMARK   12  A    between atoms: _25  and  _26
REMARK   13  A    between atoms: _26  and  _27
REMARK   14  A    between atoms: _32  and  _34
REMARK   15  A    between atoms: _34  and  _35
REMARK   16  A    between atoms: _34  and  _37
REMARK   17  A    between atoms: _37  and  _38
REMARK   18  A    between atoms: _41  and  _43
REMARK   19  A    between atoms: _43  and  _44
REMARK   20  A    between atoms: _43  and  _46
REMARK   21  A    between atoms: _46  and  _47
REMARK   22  A    between atoms: _47  and  _48
REMARK   23  A    between atoms: _51  and  _53
REMARK   24  A    between atoms: _53  and  _54
REMARK   25  A    between atoms: _56  and  _58
REMARK   26  A    between atoms: _58  and  _59
REMARK   27  A    between atoms: _58  and  _61
REMARK   28  A    between atoms: _65  and  _66
REMARK   29  A    between atoms: _71  and  _73
REMARK   30  A    between atoms: _73  and  _74
REMARK   31  A    between atoms: _73  and  _76
REMARK   32  A    between atoms: _76  and  _77
REMARK   33  A    between atoms: _77  and  _78
REMARK   34  A    between atoms: _81  and  _83
REMARK   35  A    between atoms: _83  and  _84
REMARK   36  A    between atoms: _83  and  _86
REMARK   37  A    between atoms: _86  and  _87
REMARK   38  A    between atoms: _89  and  _91
REMARK   39  A    between atoms: _91  and  _92
REMARK   40  A    between atoms: _91  and  _94
REMARK   41  A    between atoms: _94  and  _95
REMARK   42  A    between atoms: _100  and  _102
REMARK   43  A    between atoms: _102  and  _103
REMARK   44  A    between atoms: _102  and  _105
REMARK   45  A    between atoms: _105  and  _106
REMARK   46  A    between atoms: _106  and  _107
REMARK   47  A    between atoms: _107  and  _108
REMARK   48  A    between atoms: _118  and  _119
REMARK   49  A    between atoms: _124  and  _126
REMARK   50  A    between atoms: _126  and  _127
REMARK   51  A    between atoms: _126  and  _129
REMARK   52  A    between atoms: _129  and  _130
REMARK   53  A    between atoms: _135  and  _136
REMARK   54  A    between atoms: _138  and  _140
REMARK   55  A    between atoms: _140  and  _141
REMARK   56  A    between atoms: _140  and  _143
REMARK   57  A    between atoms: _143  and  _144
REMARK   58  A    between atoms: _149  and  _150
REMARK   59  A    between atoms: _152  and  _154
REMARK   60  A    between atoms: _154  and  _155
REMARK   61  A    between atoms: _154  and  _157
REMARK   62  A    between atoms: _160  and  _162
REMARK   63  A    between atoms: _162  and  _163
REMARK   64  A    between atoms: _162  and  _165
REMARK   65  A    between atoms: _165  and  _166
REMARK   66  A    between atoms: _172  and  _173
REMARK   67  A    between atoms: _178  and  _180
REMARK   68  A    between atoms: _180  and  _181
REMARK   69  A    between atoms: _180  and  _183
REMARK   70  A    between atoms: _183  and  _184
REMARK   71  A    between atoms: _186  and  _188
REMARK   72  A    between atoms: _188  and  _189
REMARK   73  A    between atoms: _188  and  _191
REMARK   74  A    between atoms: _191  and  _192
REMARK   75  A    between atoms: _197  and  _198
REMARK   76  A    between atoms: _200  and  _202
REMARK   77  A    between atoms: _202  and  _203
REMARK   78  A    between atoms: _202  and  _205
REMARK   79  A    between atoms: _205  and  _206
REMARK   80  A    between atoms: _211  and  _213
REMARK   81  A    between atoms: _213  and  _214
REMARK   82  A    between atoms: _213  and  _216
REMARK   83  A    between atoms: _216  and  _217
REMARK   84  A    between atoms: _222  and  _224
REMARK   85  A    between atoms: _224  and  _225
REMARK   86  A    between atoms: _224  and  _227
REMARK   87  A    between atoms: _227  and  _228
REMARK   88  A    between atoms: _228  and  _229
REMARK   89  A    between atoms: _231  and  _233
REMARK   90  A    between atoms: _233  and  _234
REMARK   91  A    between atoms: _233  and  _236
REMARK   92  A    between atoms: _236  and  _237
REMARK   93  A    between atoms: _242  and  _243
REMARK   94  A    between atoms: _245  and  _247
REMARK   95  A    between atoms: _247  and  _248
REMARK   96  A    between atoms: _247  and  _250
REMARK   97  A    between atoms: _250  and  _251
REMARK   98  A    between atoms: _254  and  _256
REMARK   99  A    between atoms: _256  and  _257
REMARK  100  A    between atoms: _256  and  _259
REMARK  101  A    between atoms: _259  and  _260
REMARK  102  A    between atoms: _260  and  _477
REMARK  103  A    between atoms: _261  and  _263
REMARK  104  A    between atoms: _263  and  _264
REMARK  105  A    between atoms: _263  and  _266
REMARK  106  A    between atoms: _266  and  _267
REMARK  107  A    between atoms: _270  and  _272
REMARK  108  A    between atoms: _272  and  _273
REMARK  109  A    between atoms: _272  and  _275
REMARK  110  A    between atoms: _275  and  _276
REMARK  111  A    between atoms: _281  and  _282
REMARK  112  A    between atoms: _284  and  _286
REMARK  113  A    between atoms: _286  and  _287
REMARK  114  A    between atoms: _286  and  _289
REMARK  115  A    between atoms: _289  and  _290
REMARK  116  A    between atoms: _295  and  _296
REMARK  117  A    between atoms: _298  and  _300
REMARK  118  A    between atoms: _300  and  _301
REMARK  119  A    between atoms: _300  and  _303
REMARK  120  A    between atoms: _303  and  _304
REMARK  121  A    between atoms: _304  and  _305
REMARK  122  A    between atoms: _308  and  _310
REMARK  123  A    between atoms: _310  and  _311
REMARK  124  A    between atoms: _310  and  _313
REMARK  125  A    between atoms: _313  and  _314
REMARK  126  A    between atoms: _319  and  _320
REMARK  127  A    between atoms: _322  and  _324
REMARK  128  A    between atoms: _324  and  _325
REMARK  129  A    between atoms: _324  and  _327
REMARK  130  A    between atoms: _327  and  _328
REMARK  131  A    between atoms: _333  and  _335
REMARK  132  A    between atoms: _335  and  _336
REMARK  133  A    between atoms: _335  and  _338
REMARK  134  A    between atoms: _338  and  _339
REMARK  135  A    between atoms: _342  and  _344
REMARK  136  A    between atoms: _344  and  _345
REMARK  137  A    between atoms: _344  and  _347
REMARK  138  A    between atoms: _347  and  _348
REMARK  139  A    between atoms: _353  and  _355
REMARK  140  A    between atoms: _355  and  _356
REMARK  141  A    between atoms: _355  and  _358
REMARK  142  A    between atoms: _358  and  _359
REMARK  143  A    between atoms: _369  and  _371
REMARK  144  A    between atoms: _371  and  _372
REMARK  145  A    between atoms: _371  and  _374
REMARK  146  A    between atoms: _374  and  _375
REMARK  147  A    between atoms: _381  and  _383
REMARK  148  A    between atoms: _383  and  _384
REMARK  149  A    between atoms: _383  and  _386
REMARK  150  A    between atoms: _386  and  _387
REMARK  151  A    between atoms: _390  and  _392
REMARK  152  A    between atoms: _392  and  _393
REMARK  153  A    between atoms: _392  and  _395
REMARK  154  A    between atoms: _395  and  _396
REMARK  155  A    between atoms: _399  and  _401
REMARK  156  A    between atoms: _401  and  _402
REMARK  157  A    between atoms: _401  and  _404
REMARK  158  A    between atoms: _404  and  _405
REMARK  159  A    between atoms: _405  and  _406
REMARK  160  A    between atoms: _406  and  _407
REMARK  161  A    between atoms: _416  and  _418
REMARK  162  A    between atoms: _418  and  _419
REMARK  163  A    between atoms: _418  and  _421
REMARK  164  A    between atoms: _421  and  _422
REMARK  165  A    between atoms: _427  and  _429
REMARK  166  A    between atoms: _429  and  _430
REMARK  167  A    between atoms: _429  and  _432
REMARK  168  A    between atoms: _432  and  _433
REMARK  169  A    between atoms: _433  and  _434
REMARK  170  A    between atoms: _434  and  _435
REMARK  171  A    between atoms: _444  and  _446
REMARK  172  A    between atoms: _446  and  _447
REMARK  173  A    between atoms: _450  and  _452
REMARK  174  A    between atoms: _452  and  _453
REMARK  175  A    between atoms: _455  and  _457
REMARK  176  A    between atoms: _457  and  _458
REMARK  177  A    between atoms: _457  and  _460
REMARK  178  A    between atoms: _460  and  _461
REMARK  179  A    between atoms: _471  and  _473
REMARK  180  A    between atoms: _473  and  _474
REMARK  181  A    between atoms: _473  and  _476
REMARK  182  A    between atoms: _476  and  _477
REMARK  183  A    between atoms: _478  and  _480
REMARK  184  A    between atoms: _480  and  _481
REMARK  185  A    between atoms: _484  and  _486
REMARK  186  A    between atoms: _486  and  _487
REMARK  187  A    between atoms: _486  and  _489
REMARK  188  A    between atoms: _489  and  _490
REMARK  189  A    between atoms: _493  and  _495
REMARK  190  A    between atoms: _495  and  _496
REMARK  191  A    between atoms: _495  and  _498
REMARK  192  A    between atoms: _498  and  _499
REMARK  193  A    between atoms: _504  and  _505
REMARK  194  A    between atoms: _507  and  _509
REMARK  195  A    between atoms: _509  and  _510
REMARK  196  A    between atoms: _509  and  _512
REMARK  197  A    between atoms: _512  and  _513
REMARK  198  A    between atoms: _515  and  _517
REMARK  199  A    between atoms: _517  and  _518
REMARK  200  A    between atoms: _517  and  _520
REMARK  201  A    between atoms: _520  and  _521
REMARK  202  A    between atoms: _527  and  _529
REMARK  203  A    between atoms: _529  and  _530
REMARK  204  A    between atoms: _529  and  _532
REMARK  205  A    between atoms: _532  and  _533
REMARK  206  A    between atoms: _536  and  _538
REMARK  207  A    between atoms: _538  and  _539
REMARK  208  A    between atoms: _538  and  _541
REMARK  209  A    between atoms: _541  and  _542
REMARK  210  A    between atoms: _544  and  _546
REMARK  211  A    between atoms: _546  and  _547
REMARK  212  A    between atoms: _546  and  _549
REMARK  213  A    between atoms: _549  and  _550
REMARK  214  A    between atoms: _555  and  _557
REMARK  215  A    between atoms: _557  and  _558
REMARK  216  A    between atoms: _557  and  _560
REMARK  217  A    between atoms: _560  and  _561
REMARK  218  A    between atoms: _566  and  _568
REMARK  219  A    between atoms: _568  and  _569
REMARK  220  A    between atoms: _568  and  _571
REMARK  221  A    between atoms: _571  and  _572
REMARK  222  A    between atoms: _575  and  _577
REMARK  223  A    between atoms: _577  and  _578
REMARK  224  A    between atoms: _581  and  _583
REMARK  225  A    between atoms: _583  and  _584
REMARK  226  A    between atoms: _583  and  _586
REMARK  227  A    between atoms: _586  and  _587
REMARK  228  A    between atoms: _592  and  _593
REMARK  229  A    between atoms: _595  and  _597
REMARK  230  A    between atoms: _597  and  _598
REMARK  231  A    between atoms: _597  and  _600
REMARK  232  A    between atoms: _600  and  _601
REMARK  233  A    between atoms: _606  and  _607
REMARK  234  A    between atoms: _609  and  _611
REMARK  235  A    between atoms: _611  and  _612
REMARK  236  A    between atoms: _611  and  _614
REMARK  237  A    between atoms: _617  and  _619
REMARK  238  A    between atoms: _619  and  _620
REMARK  239  A    between atoms: _619  and  _622
REMARK  240  A    between atoms: _622  and  _623
REMARK  241  A    between atoms: _628  and  _630
REMARK  242  A    between atoms: _630  and  _631
REMARK  243  A    between atoms: _634  and  _636
REMARK  244  A    between atoms: _636  and  _637
REMARK  245  A    between atoms: _636  and  _639
REMARK  246  A    between atoms: _639  and  _640
REMARK  247  A    between atoms: _640  and  _641
REMARK  248  A    between atoms: _641  and  _642
REMARK  249  A    between atoms: _651  and  _653
REMARK  250  A    between atoms: _653  and  _654
REMARK  251  A    between atoms: _653  and  _656
REMARK  252  A    between atoms: _656  and  _657
REMARK  253  A    between atoms: _660  and  _662
REMARK  254  A    between atoms: _662  and  _663
REMARK  255  A    between atoms: _662  and  _665
REMARK  256  A    between atoms: _665  and  _666
REMARK  257  A    between atoms: _669  and  _671
REMARK  258  A    between atoms: _671  and  _672
REMARK  259  A    between atoms: _671  and  _674
REMARK  260  A    between atoms: _674  and  _675
REMARK                            x       y       z     vdW  Elec       q    Type
REMARK                         _______ _______ _______ _____ _____    ______ ____
ROOT
ATOM      1  CA  THR A   1      11.624  16.656  22.969  0.00  0.00    +0.160 C 
ENDROOT
BRANCH   1   2
ATOM      2  N   THR A   1      12.092  15.279  22.878  0.00  0.00    -0.237 NA
ATOM      3  H   THR A   1      11.431  14.529  22.592  0.00  0.00    +0.142 HD
ENDBRANCH   1   2
BRANCH   1   4
ATOM      4  C   THR A   1      11.522  17.133  24.415  0.00  0.00    +0.227 C 
ATOM      5  O   THR A   1      11.299  18.340  24.571  0.00  0.00    -0.287 OA
ENDBRANCH   1   4
BRANCH   1   6
ATOM      6  CB  THR A   1      10.226  16.811  22.322  0.00  0.00    +0.134 C 
ATOM      7  CG2 THR A   1      10.293  16.344  20.869  0.00  0.00    +0.034 C 
BRANCH   6   8
ATOM      8  OG1 THR A   1       9.236  16.081  23.045  0.00  0.00    -0.383 OA
ATOM      9  HG1 THR A   1       9.476  15.120  23.052  0.00  0.00    +0.210 HD
ENDBRANCH   6   8
ENDBRANCH   1   6
TORSDOF 4
REMARK  Name = ../refined-set-2016/1b32/1b32_pocket.pdb
REMARK  260 active torsions:
REMARK  status: ('A' for Active; 'I' for Inactive)
REMARK    1  A    between atoms: _1  and  _3
REMARK    2  A    between atoms: _3  and  _4
REMARK    3  A    between atoms: _3  and  _6
REMARK    4  A    between atoms: _6  and  _7
REMARK    5  A    between atoms: _12  and  _14
REMARK    6  A    between atoms: _14  and  _15
REMARK    7  A    between atoms: _14  and  _17
REMARK    8  A    between atoms: _17  and  _18
REMARK    9  A    between atoms: _20  and  _22
REMARK   10  A    between atoms: _22  and  _23
REMARK   11  A    between atoms: _22  and  _25
REMARK   12  A    between atoms: _25  and  _26
REMARK   13  A    between atoms: _26  and  _27
REMARK   14  A    between atoms: _32  and  _34
REMARK   15  A    between atoms: _34  and  _35
REMARK   16  A    between atoms: _34  and  _37
REMARK   17  A    between atoms: _37  and  _38
REMARK   18  A    between atoms: _41  and  _43
REMARK   19  A    between atoms: _43  and  _44
REMARK   20  A    between atoms: _43  and  _46
REMARK   21  A    between atoms: _46  and  _47
REMARK   22  A    between atoms: _47  and  _48
REMARK   23  A    between atoms: _51  and  _53
REMARK   24  A    between atoms: _53  and  _54
REMARK   25  A    between atoms: _56  and  _58
REMARK   26  A    between atoms: _58  and  _59
REMARK   27  A    between atoms: _58  and  _61
REMARK   28  A    between atoms: _65  and  _66
REMARK   29  A    between atoms: _71  and  _73
REMARK   30  A    between atoms: _73  and  _74
REMARK   31  A    between atoms: _73  and  _76
REMARK   32  A    between atoms: _76  and  _77
REMARK   33  A    between atoms: _77  and  _78
REMARK   34  A    between atoms: _81  and  _83
REMARK   35  A    between atoms: _83  and  _84
REMARK   36  A    between atoms: _83  and  _86
REMARK   37  A    between atoms: _86  and  _87
REMARK   38  A    between atoms: _89  and  _91
REMARK   39  A    between atoms: _91  and  _92
REMARK   40  A    between atoms: _91  and  _94
REMARK   41  A    between atoms: _94  and  _95
REMARK   42  A    between atoms: _100  and  _102
REMARK   43  A    between atoms: _102  and  _103
REMARK   44  A    between atoms: _102  and  _105
REMARK   45  A    between atoms: _105  and  _106
REMARK   46  A    between atoms: _106  and  _107
REMARK   47  A    between atoms: _107  and  _108
REMARK   48  A    between atoms: _118  and  _119
REMARK   49  A    between atoms: _124  and  _126
REMARK   50  A    between atoms: _126  and  _127
REMARK   51  A    between atoms: _126  and  _129
REMARK   52  A    between atoms: _129  and  _130
REMARK   53  A    between atoms: _135  and  _136
REMARK   54  A    between atoms: _138  and  _140
REMARK   55  A    between atoms: _140  and  _141
REMARK   56  A    between atoms: _140  and  _143
REMARK   57  A    between atoms: _143  and  _144
REMARK   58  A    between atoms: _149  and  _150
REMARK   59  A    between atoms: _152  and  _154
REMARK   60  A    between atoms: _154  and  _155
REMARK   61  A    between atoms: _154  and  _157
REMARK   62  A    between atoms: _160  and  _162
REMARK   63  A    between atoms: _162  and  _163
REMARK   64  A    between atoms: _162  and  _165
REMARK   65  A    between atoms: _165  and  _166
REMARK   66  A    between atoms: _172  and  _173
REMARK   67  A    between atoms: _178  and  _180
REMARK   68  A    between atoms: _180  and  _181
REMARK   69  A    between atoms: _180  and  _183
REMARK   70  A    between atoms: _183  and  _184
REMARK   71  A    between atoms: _186  and  _188
REMARK   72  A    between atoms: _188  and  _189
REMARK   73  A    between atoms: _188  and  _191
REMARK   74  A    between atoms: _191  and  _192
REMARK   75  A    between atoms: _197  and  _198
REMARK   76  A    between atoms: _200  and  _202
REMARK   77  A    between atoms: _202  and  _203
REMARK   78  A    between atoms: _202  and  _205
REMARK   79  A    between atoms: _205  and  _206
REMARK   80  A    between atoms: _211  and  _213
REMARK   81  A    between atoms: _213  and  _214
REMARK   82  A    between atoms: _213  and  _216
REMARK   83  A    between atoms: _216  and  _217
REMARK   84  A    between atoms: _222  and  _224
REMARK   85  A    between atoms: _224  and  _225
REMARK   86  A    between atoms: _224  and  _227
REMARK   87  A    between atoms: _227  and  _228
REMARK   88  A    between atoms: _228  and  _229
REMARK   89  A    between atoms: _231  and  _233
REMARK   90  A    between atoms: _233  and  _234
REMARK   91  A    between atoms: _233  and  _236
REMARK   92  A    between atoms: _236  and  _237
REMARK   93  A    between atoms: _242  and  _243
REMARK   94  A    between atoms: _245  and  _247
REMARK   95  A    between atoms: _247  and  _248
REMARK   96  A    between atoms: _247  and  _250
REMARK   97  A    between atoms: _250  and  _251
REMARK   98  A    between atoms: _254  and  _256
REMARK   99  A    between atoms: _256  and  _257
REMARK  100  A    between atoms: _256  and  _259
REMARK  101  A    between atoms: _259  and  _260
REMARK  102  A    between atoms: _260  and  _477
REMARK  103  A    between atoms: _261  and  _263
REMARK  104  A    between atoms: _263  and  _264
REMARK  105  A    between atoms: _263  and  _266
REMARK  106  A    between atoms: _266  and  _267
REMARK  107  A    between atoms: _270  and  _272
REMARK  108  A    between atoms: _272  and  _273
REMARK  109  A    between atoms: _272  and  _275
REMARK  110  A    between atoms: _275  and  _276
REMARK  111  A    between atoms: _281  and  _282
REMARK  112  A    between atoms: _284  and  _286
REMARK  113  A    between atoms: _286  and  _287
REMARK  114  A    between atoms: _286  and  _289
REMARK  115  A    between atoms: _289  and  _290
REMARK  116  A    between atoms: _295  and  _296
REMARK  117  A    between atoms: _298  and  _300
REMARK  118  A    between atoms: _300  and  _301
REMARK  119  A    between atoms: _300  and  _303
REMARK  120  A    between atoms: _303  and  _304
REMARK  121  A    between atoms: _304  and  _305
REMARK  122  A    between atoms: _308  and  _310
REMARK  123  A    between atoms: _310  and  _311
REMARK  124  A    between atoms: _310  and  _313
REMARK  125  A    between atoms: _313  and  _314
REMARK  126  A    between atoms: _319  and  _320
REMARK  127  A    between atoms: _322  and  _324
REMARK  128  A    between atoms: _324  and  _325
REMARK  129  A    between atoms: _324  and  _327
REMARK  130  A    between atoms: _327  and  _328
REMARK  131  A    between atoms: _333  and  _335
REMARK  132  A    between atoms: _335  and  _336
REMARK  133  A    between atoms: _335  and  _338
REMARK  134  A    between atoms: _338  and  _339
REMARK  135  A    between atoms: _342  and  _344
REMARK  136  A    between atoms: _344  and  _345
REMARK  137  A    between atoms: _344  and  _347
REMARK  138  A    between atoms: _347  and  _348
REMARK  139  A    between atoms: _353  and  _355
REMARK  140  A    between atoms: _355  and  _356
REMARK  141  A    between atoms: _355  and  _358
REMARK  142  A    between atoms: _358  and  _359
REMARK  143  A    between atoms: _369  and  _371
REMARK  144  A    between atoms: _371  and  _372
REMARK  145  A    between atoms: _371  and  _374
REMARK  146  A    between atoms: _374  and  _375
REMARK  147  A    between atoms: _381  and  _383
REMARK  148  A    between atoms: _383  and  _384
REMARK  149  A    between atoms: _383  and  _386
REMARK  150  A    between atoms: _386  and  _387
REMARK  151  A    between atoms: _390  and  _392
REMARK  152  A    between atoms: _392  and  _393
REMARK  153  A    between atoms: _392  and  _395
REMARK  154  A    between atoms: _395  and  _396
REMARK  155  A    between atoms: _399  and  _401
REMARK  156  A    between atoms: _401  and  _402
REMARK  157  A    between atoms: _401  and  _404
REMARK  158  A    between atoms: _404  and  _405
REMARK  159  A    between atoms: _405  and  _406
REMARK  160  A    between atoms: _406  and  _407
REMARK  161  A    between atoms: _416  and  _418
REMARK  162  A    between atoms: _418  and  _419
REMARK  163  A    between atoms: _418  and  _421
REMARK  164  A    between atoms: _421  and  _422
REMARK  165  A    between atoms: _427  and  _429
REMARK  166  A    between atoms: _429  and  _430
REMARK  167  A    between atoms: _429  and  _432
REMARK  168  A    between atoms: _432  and  _433
REMARK  169  A    between atoms: _433  and  _434
REMARK  170  A    between atoms: _434  and  _435
REMARK  171  A    between atoms: _444  and  _446
REMARK  172  A    between atoms: _446  and  _447
REMARK  173  A    between atoms: _450  and  _452
REMARK  174  A    between atoms: _452  and  _453
REMARK  175  A    between atoms: _455  and  _457
REMARK  176  A    between atoms: _457  and  _458
REMARK  177  A    between atoms: _457  and  _460
REMARK  178  A    between atoms: _460  and  _461
REMARK  179  A    between atoms: _471  and  _473
REMARK  180  A    between atoms: _473  and  _474
REMARK  181  A    between atoms: _473  and  _476
REMARK  182  A    between atoms: _476  and  _477
REMARK  183  A    between atoms: _478  and  _480
REMARK  184  A    between atoms: _480  and  _481
REMARK  185  A    between atoms: _484  and  _486
REMARK  186  A    between atoms: _486  and  _487
REMARK  187  A    between atoms: _486  and  _489
REMARK  188  A    between atoms: _489  and  _490
REMARK  189  A    between atoms: _493  and  _495
REMARK  190  A    between atoms: _495  and  _496
REMARK  191  A    between atoms: _495  and  _498
REMARK  192  A    between atoms: _498  and  _499
REMARK  193  A    between atoms: _504  and  _505
REMARK  194  A    between atoms: _507  and  _509
REMARK  195  A    between atoms: _509  and  _510
REMARK  196  A    between atoms: _509  and  _512
REMARK  197  A    between atoms: _512  and  _513
REMARK  198  A    between atoms: _515  and  _517
REMARK  199  A    between atoms: _517  and  _518
REMARK  200  A    between atoms: _517  and  _520
REMARK  201  A    between atoms: _520  and  _521
REMARK  202  A    between atoms: _527  and  _529
REMARK  203  A    between atoms: _529  and  _530
REMARK  204  A    between atoms: _529  and  _532
REMARK  205  A    between atoms: _532  and  _533
REMARK  206  A    between atoms: _536  and  _538
REMARK  207  A    between atoms: _538  and  _539
REMARK  208  A    between atoms: _538  and  _541
REMARK  209  A    between atoms: _541  and  _542
REMARK  210  A    between atoms: _544  and  _546
REMARK  211  A    between atoms: _546  and  _547
REMARK  212  A    between atoms: _546  and  _549
REMARK  213  A    between atoms: _549  and  _550
REMARK  214  A    between atoms: _555  and  _557
REMARK  215  A    between atoms: _557  and  _558
REMARK  216  A    between atoms: _557  and  _560
REMARK  217  A    between atoms: _560  and  _561
REMARK  218  A    between atoms: _566  and  _568
REMARK  219  A    between atoms: _568  and  _569
REMARK  220  A    between atoms: _568  and  _571
REMARK  221  A    between atoms: _571  and  _572
REMARK  222  A    between atoms: _575  and  _577
REMARK  223  A    between atoms: _577  and  _578
REMARK  224  A    between atoms: _581  and  _583
REMARK  225  A    between atoms: _583  and  _584
REMARK  226  A    between atoms: _583  and  _586
REMARK  227  A    between atoms: _586  and  _587
REMARK  228  A    between atoms: _592  and  _593
REMARK  229  A    between atoms: _595  and  _597
REMARK  230  A    between atoms: _597  and  _598
REMARK  231  A    between atoms: _597  and  _600
REMARK  232  A    between atoms: _600  and  _601
REMARK  233  A    between atoms: _606  and  _607
REMARK  234  A    between atoms: _609  and  _611
REMARK  235  A    between atoms: _611  and  _612
REMARK  236  A    between atoms: _611  and  _614
REMARK  237  A    between atoms: _617  and  _619
REMARK  238  A    between atoms: _619  and  _620
REMARK  239  A    between atoms: _619  and  _622
REMARK  240  A    between atoms: _622  and  _623
REMARK  241  A    between atoms: _628  and  _630
REMARK  242  A    between atoms: _630  and  _631
REMARK  243  A    between atoms: _634  and  _636
REMARK  244  A    between atoms: _636  and  _637
REMARK  245  A    between atoms: _636  and  _639
REMARK  246  A    between atoms: _639  and  _640
REMARK  247  A    between atoms: _640  and  _641
REMARK  248  A    between atoms: _641  and  _642
REMARK  249  A    between atoms: _651  and  _653
REMARK  250  A    between atoms: _653  and  _654
REMARK  251  A    between atoms: _653  and  _656
REMARK  252  A    between atoms: _656  and  _657
REMARK  253  A    between atoms: _660  and  _662
REMARK  254  A    between atoms: _662  and  _663
REMARK  255  A    between atoms: _662  and  _665
REMARK  256  A    between atoms: _665  and  _666
REMARK  257  A    between atoms: _669  and  _671
REMARK  258  A    between atoms: _671  and  _672
REMARK  259  A    between atoms: _671  and  _674
REMARK  260  A    between atoms: _674  and  _675
REMARK                            x       y       z     vdW  Elec       q    Type
REMARK                         _______ _______ _______ _____ _____    ______ ____
ROOT
ATOM      1  CA  ASN A   3      11.183  21.527  24.479  0.00  0.00    +0.158 C 
ENDROOT
BRANCH   1   3
ATOM      2  C   ASN A   2      11.106  21.272  22.085  0.00  0.00    +0.241 C 
ATOM      3  N   ASN A   3      11.827  21.595  23.159  0.00  0.00    -0.297 N 
ATOM      4  H   ASN A   3      12.821  21.888  23.065  0.00  0.00    +0.150 HD
ATOM      5  O   ASN A   2       9.913  20.953  22.185  0.00  0.00    -0.273 OA
BRANCH   2   6
ATOM      6  CA  ASN A   2      11.749  21.271  20.700  0.00  0.00    +0.158 C 
BRANCH   6   8
ATOM      7  C   SER A   1      13.741  22.704  20.659  0.00  0.00    +0.241 C 
ATOM      8  N   ASN A   2      13.190  21.486  20.771  0.00  0.00    -0.297 N 
ATOM      9  H   ASN A   2      13.813  20.665  20.914  0.00  0.00    +0.150 HD
ATOM     10  O   SER A   1      13.063  23.690  20.394  0.00  0.00    -0.274 OA
BRANCH   7  11
ATOM     11  CA  SER A   1      15.243  22.861  20.823  0.00  0.00    +0.174 C 
BRANCH  11  12
ATOM     12  N   SER A   1      15.799  21.734  21.550  0.00  0.00    -0.236 NA
ATOM     13  H   SER A   1      16.447  21.103  21.036  0.00  0.00    +0.142 HD
ENDBRANCH  11  12
BRANCH  11  14
ATOM     14  CB  SER A   1      15.968  22.979  19.474  0.00  0.00    +0.163 C 
BRANCH  14  15
ATOM     15  OG  SER A   1      15.713  21.869  18.612  0.00  0.00    -0.380 OA
ATOM     16  H   SER A   1      14.742  21.810  18.431  0.00  0.00    +0.211 HD
ENDBRANCH  14  15
ENDBRANCH  11  14
ENDBRANCH   7  11
ENDBRANCH   6   8
BRANCH   6  17
ATOM     17  CB  ASN A   2      11.471  19.904  20.063  0.00  0.00    +0.114 C 
BRANCH  17  18
ATOM     18  CG  ASN A   2      12.009  19.762  18.655  0.00  0.00    +0.222 C 
ATOM     19  OD1 ASN A   2      12.888  18.933  18.395  0.00  0.00    -0.275 OA
ATOM     20  ND2 ASN A   2      11.421  20.517  17.732  0.00  0.00    -0.329 N 
ATOM     21 HD21 ASN A   2      10.686  21.199  18.009  0.00  0.00    +0.145 HD
ATOM     22 HD22 ASN A   2      11.696  20.426  16.733  0.00  0.00    +0.145 HD
ENDBRANCH  17  18
ENDBRANCH   6  17
ENDBRANCH   2   6
ENDBRANCH   1   3
BRANCH   1  23
ATOM     23  C   ASN A   3      10.440  22.820  24.785  0.00  0.00    +0.241 C 
ATOM     24  O   ASN A   3      11.022  23.756  25.317  0.00  0.00    -0.273 OA
ATOM     25  N   THR A   4       9.155  22.835  24.406  0.00  0.00    -0.295 N 
ATOM     26  H   THR A   4       8.757  22.011  23.912  0.00  0.00    +0.150 HD
BRANCH  25  27
ATOM     27  CA  THR A   4       8.305  23.992  24.677  0.00  0.00    +0.176 C 
BRANCH  27  28
ATOM     28  C   THR A   4       7.635  23.811  26.020  0.00  0.00    +0.243 C 
ATOM     29  N   ALA A   5       7.782  22.659  26.688  0.00  0.00    -0.298 N 
ATOM     30  H   ALA A   5       8.301  21.868  26.255  0.00  0.00    +0.150 HD
ATOM     31  O   THR A   4       6.922  24.721  26.479  0.00  0.00    -0.273 OA
BRANCH  29  32
ATOM     32  CA  ALA A   5       7.212  22.515  28.027  0.00  0.00    +0.137 C 
ATOM     33  CB  ALA A   5       7.113  21.043  28.445  0.00  0.00    +0.030 C 
BRANCH  32  34
ATOM     34  C   ALA A   5       8.152  23.266  28.971  0.00  0.00    +0.227 C 
ATOM     35  O   ALA A   5       7.838  23.541  30.131  0.00  0.00    -0.286 OA
ENDBRANCH  32  34
ENDBRANCH  29  32
ENDBRANCH  27  28
BRANCH  27  36
ATOM     36  CB  THR A   4       7.290  24.260  23.549  0.00  0.00    +0.137 C 
ATOM     37  CG2 THR A   4       8.037  24.819  22.332  0.00  0.00    +0.034 C 
BRANCH  36  38
ATOM     38  OG1 THR A   4       6.728  23.035  23.099  0.00  0.00    -0.382 OA
ATOM     39  HG1 THR A   4       6.267  22.588  23.853  0.00  0.00    +0.210 HD
ENDBRANCH  36  38
ENDBRANCH  27  36
ENDBRANCH  25  27
ENDBRANCH   1  23
BRANCH   1  40
ATOM     40  CB  ASN A   3      12.278  21.230  25.520  0.00  0.00    +0.114 C 
BRANCH  40  41
ATOM     41  CG  ASN A   3      11.709  20.948  26.897  0.00  0.00    +0.222 C 
ATOM     42  ND2 ASN A   3      12.513  20.193  27.660  0.00  0.00    -0.329 N 
ATOM     43 HD21 ASN A   3      12.214  19.919  28.618  0.00  0.00    +0.145 HD
ATOM     44 HD22 ASN A   3      13.435  19.882  27.294  0.00  0.00    +0.145 HD
ATOM     45  OD1 ASN A   3      10.610  21.319  27.332  0.00  0.00    -0.275 OA
ENDBRANCH  40  41
ENDBRANCH   1  40
TORSDOF 18
REMARK  Name = ../refined-set-2016/1b32/1b32_pocket.pdb
REMARK  260 active torsions:
REMARK  status: ('A' for Active; 'I' for Inactive)
REMARK    1  A    between atoms: _1  and  _3
REMARK    2  A    between atoms: _3  and  _4
REMARK    3  A    between atoms: _3  and  _6
REMARK    4  A    between atoms: _6  and  _7
REMARK    5  A    between atoms: _12  and  _14
REMARK    6  A    between atoms: _14  and  _15
REMARK    7  A    between atoms: _14  and  _17
REMARK    8  A    between atoms: _17  and  _18
REMARK    9  A    between atoms: _20  and  _22
REMARK   10  A    between atoms: _22  and  _23
REMARK   11  A    between atoms: _22  and  _25
REMARK   12  A    between atoms: _25  and  _26
REMARK   13  A    between atoms: _26  and  _27
REMARK   14  A    between atoms: _32  and  _34
REMARK   15  A    between atoms: _34  and  _35
REMARK   16  A    between atoms: _34  and  _37
REMARK   17  A    between atoms: _37  and  _38
REMARK   18  A    between atoms: _41  and  _43
REMARK   19  A    between atoms: _43  and  _44
REMARK   20  A    between atoms: _43  and  _46
REMARK   21  A    between atoms: _46  and  _47
REMARK   22  A    between atoms: _47  and  _48
REMARK   23  A    between atoms: _51  and  _53
REMARK   24  A    between atoms: _53  and  _54
REMARK   25  A    between atoms: _56  and  _58
REMARK   26  A    between atoms: _58  and  _59
REMARK   27  A    between atoms: _58  and  _61
REMARK   28  A    between atoms: _65  and  _66
REMARK   29  A    between atoms: _71  and  _73
REMARK   30  A    between atoms: _73  and  _74
REMARK   31  A    between atoms: _73  and  _76
REMARK   32  A    between atoms: _76  and  _77
REMARK   33  A    between atoms: _77  and  _78
REMARK   34  A    between atoms: _81  and  _83
REMARK   35  A    between atoms: _83  and  _84
REMARK   36  A    between atoms: _83  and  _86
REMARK   37  A    between atoms: _86  and  _87
REMARK   38  A    between atoms: _89  and  _91
REMARK   39  A    between atoms: _91  and  _92
REMARK   40  A    between atoms: _91  and  _94
REMARK   41  A    between atoms: _94  and  _95
REMARK   42  A    between atoms: _100  and  _102
REMARK   43  A    between atoms: _102  and  _103
REMARK   44  A    between atoms: _102  and  _105
REMARK   45  A    between atoms: _105  and  _106
REMARK   46  A    between atoms: _106  and  _107
REMARK   47  A    between atoms: _107  and  _108
REMARK   48  A    between atoms: _118  and  _119
REMARK   49  A    between atoms: _124  and  _126
REMARK   50  A    between atoms: _126  and  _127
REMARK   51  A    between atoms: _126  and  _129
REMARK   52  A    between atoms: _129  and  _130
REMARK   53  A    between atoms: _135  and  _136
REMARK   54  A    between atoms: _138  and  _140
REMARK   55  A    between atoms: _140  and  _141
REMARK   56  A    between atoms: _140  and  _143
REMARK   57  A    between atoms: _143  and  _144
REMARK   58  A    between atoms: _149  and  _150
REMARK   59  A    between atoms: _152  and  _154
REMARK   60  A    between atoms: _154  and  _155
REMARK   61  A    between atoms: _154  and  _157
REMARK   62  A    between atoms: _160  and  _162
REMARK   63  A    between atoms: _162  and  _163
REMARK   64  A    between atoms: _162  and  _165
REMARK   65  A    between atoms: _165  and  _166
REMARK   66  A    between atoms: _172  and  _173
REMARK   67  A    between atoms: _178  and  _180
REMARK   68  A    between atoms: _180  and  _181
REMARK   69  A    between atoms: _180  and  _183
REMARK   70  A    between atoms: _183  and  _184
REMARK   71  A    between atoms: _186  and  _188
REMARK   72  A    between atoms: _188  and  _189
REMARK   73  A    between atoms: _188  and  _191
REMARK   74  A    between atoms: _191  and  _192
REMARK   75  A    between atoms: _197  and  _198
REMARK   76  A    between atoms: _200  and  _202
REMARK   77  A    between atoms: _202  and  _203
REMARK   78  A    between atoms: _202  and  _205
REMARK   79  A    between atoms: _205  and  _206
REMARK   80  A    between atoms: _211  and  _213
REMARK   81  A    between atoms: _213  and  _214
REMARK   82  A    between atoms: _213  and  _216
REMARK   83  A    between atoms: _216  and  _217
REMARK   84  A    between atoms: _222  and  _224
REMARK   85  A    between atoms: _224  and  _225
REMARK   86  A    between atoms: _224  and  _227
REMARK   87  A    between atoms: _227  and  _228
REMARK   88  A    between atoms: _228  and  _229
REMARK   89  A    between atoms: _231  and  _233
REMARK   90  A    between atoms: _233  and  _234
REMARK   91  A    between atoms: _233  and  _236
REMARK   92  A    between atoms: _236  and  _237
REMARK   93  A    between atoms: _242  and  _243
REMARK   94  A    between atoms: _245  and  _247
REMARK   95  A    between atoms: _247  and  _248
REMARK   96  A    between atoms: _247  and  _250
REMARK   97  A    between atoms: _250  and  _251
REMARK   98  A    between atoms: _254  and  _256
REMARK   99  A    between atoms: _256  and  _257
REMARK  100  A    between atoms: _256  and  _259
REMARK  101  A    between atoms: _259  and  _260
REMARK  102  A    between atoms: _260  and  _477
REMARK  103  A    between atoms: _261  and  _263
REMARK  104  A    between atoms: _263  and  _264
REMARK  105  A    between atoms: _263  and  _266
REMARK  106  A    between atoms: _266  and  _267
REMARK  107  A    between atoms: _270  and  _272
REMARK  108  A    between atoms: _272  and  _273
REMARK  109  A    between atoms: _272  and  _275
REMARK  110  A    between atoms: _275  and  _276
REMARK  111  A    between atoms: _281  and  _282
REMARK  112  A    between atoms: _284  and  _286
REMARK  113  A    between atoms: _286  and  _287
REMARK  114  A    between atoms: _286  and  _289
REMARK  115  A    between atoms: _289  and  _290
REMARK  116  A    between atoms: _295  and  _296
REMARK  117  A    between atoms: _298  and  _300
REMARK  118  A    between atoms: _300  and  _301
REMARK  119  A    between atoms: _300  and  _303
REMARK  120  A    between atoms: _303  and  _304
REMARK  121  A    between atoms: _304  and  _305
REMARK  122  A    between atoms: _308  and  _310
REMARK  123  A    between atoms: _310  and  _311
REMARK  124  A    between atoms: _310  and  _313
REMARK  125  A    between atoms: _313  and  _314
REMARK  126  A    between atoms: _319  and  _320
REMARK  127  A    between atoms: _322  and  _324
REMARK  128  A    between atoms: _324  and  _325
REMARK  129  A    between atoms: _324  and  _327
REMARK  130  A    between atoms: _327  and  _328
REMARK  131  A    between atoms: _333  and  _335
REMARK  132  A    between atoms: _335  and  _336
REMARK  133  A    between atoms: _335  and  _338
REMARK  134  A    between atoms: _338  and  _339
REMARK  135  A    between atoms: _342  and  _344
REMARK  136  A    between atoms: _344  and  _345
REMARK  137  A    between atoms: _344  and  _347
REMARK  138  A    between atoms: _347  and  _348
REMARK  139  A    between atoms: _353  and  _355
REMARK  140  A    between atoms: _355  and  _356
REMARK  141  A    between atoms: _355  and  _358
REMARK  142  A    between atoms: _358  and  _359
REMARK  143  A    between atoms: _369  and  _371
REMARK  144  A    between atoms: _371  and  _372
REMARK  145  A    between atoms: _371  and  _374
REMARK  146  A    between atoms: _374  and  _375
REMARK  147  A    between atoms: _381  and  _383
REMARK  148  A    between atoms: _383  and  _384
REMARK  149  A    between atoms: _383  and  _386
REMARK  150  A    between atoms: _386  and  _387
REMARK  151  A    between atoms: _390  and  _392
REMARK  152  A    between atoms: _392  and  _393
REMARK  153  A    between atoms: _392  and  _395
REMARK  154  A    between atoms: _395  and  _396
REMARK  155  A    between atoms: _399  and  _401
REMARK  156  A    between atoms: _401  and  _402
REMARK  157  A    between atoms: _401  and  _404
REMARK  158  A    between atoms: _404  and  _405
REMARK  159  A    between atoms: _405  and  _406
REMARK  160  A    between atoms: _406  and  _407
REMARK  161  A    between atoms: _416  and  _418
REMARK  162  A    between atoms: _418  and  _419
REMARK  163  A    between atoms: _418  and  _421
REMARK  164  A    between atoms: _421  and  _422
REMARK  165  A    between atoms: _427  and  _429
REMARK  166  A    between atoms: _429  and  _430
REMARK  167  A    between atoms: _429  and  _432
REMARK  168  A    between atoms: _432  and  _433
REMARK  169  A    between atoms: _433  and  _434
REMARK  170  A    between atoms: _434  and  _435
REMARK  171  A    between atoms: _444  and  _446
REMARK  172  A    between atoms: _446  and  _447
REMARK  173  A    between atoms: _450  and  _452
REMARK  174  A    between atoms: _452  and  _453
REMARK  175  A    between atoms: _455  and  _457
REMARK  176  A    between atoms: _457  and  _458
REMARK  177  A    between atoms: _457  and  _460
REMARK  178  A    between atoms: _460  and  _461
REMARK  179  A    between atoms: _471  and  _473
REMARK  180  A    between atoms: _473  and  _474
REMARK  181  A    between atoms: _473  and  _476
REMARK  182  A    between atoms: _476  and  _477
REMARK  183  A    between atoms: _478  and  _480
REMARK  184  A    between atoms: _480  and  _481
REMARK  185  A    between atoms: _484  and  _486
REMARK  186  A    between atoms: _486  and  _487
REMARK  187  A    between atoms: _486  and  _489
REMARK  188  A    between atoms: _489  and  _490
REMARK  189  A    between atoms: _493  and  _495
REMARK  190  A    between atoms: _495  and  _496
REMARK  191  A    between atoms: _495  and  _498
REMARK  192  A    between atoms: _498  and  _499
REMARK  193  A    between atoms: _504  and  _505
REMARK  194  A    between atoms: _507  and  _509
REMARK  195  A    between atoms: _509  and  _510
REMARK  196  A    between atoms: _509  and  _512
REMARK  197  A    between atoms: _512  and  _513
REMARK  198  A    between atoms: _515  and  _517
REMARK  199  A    between atoms: _517  and  _518
REMARK  200  A    between atoms: _517  and  _520
REMARK  201  A    between atoms: _520  and  _521
REMARK  202  A    between atoms: _527  and  _529
REMARK  203  A    between atoms: _529  and  _530
REMARK  204  A    between atoms: _529  and  _532
REMARK  205  A    between atoms: _532  and  _533
REMARK  206  A    between atoms: _536  and  _538
REMARK  207  A    between atoms: _538  and  _539
REMARK  208  A    between atoms: _538  and  _541
REMARK  209  A    between atoms: _541  and  _542
REMARK  210  A    between atoms: _544  and  _546
REMARK  211  A    between atoms: _546  and  _547
REMARK  212  A    between atoms: _546  and  _549
REMARK  213  A    between atoms: _549  and  _550
REMARK  214  A    between atoms: _555  and  _557
REMARK  215  A    between atoms: _557  and  _558
REMARK  216  A    between atoms: _557  and  _560
REMARK  217  A    between atoms: _560  and  _561
REMARK  218  A    between atoms: _566  and  _568
REMARK  219  A    between atoms: _568  and  _569
REMARK  220  A    between atoms: _568  and  _571
REMARK  221  A    between atoms: _571  and  _572
REMARK  222  A    between atoms: _575  and  _577
REMARK  223  A    between atoms: _577  and  _578
REMARK  224  A    between atoms: _581  and  _583
REMARK  225  A    between atoms: _583  and  _584
REMARK  226  A    between atoms: _583  and  _586
REMARK  227  A    between atoms: _586  and  _587
REMARK  228  A    between atoms: _592  and  _593
REMARK  229  A    between atoms: _595  and  _597
REMARK  230  A    between atoms: _597  and  _598
REMARK  231  A    between atoms: _597  and  _600
REMARK  232  A    between atoms: _600  and  _601
REMARK  233  A    between atoms: _606  and  _607
REMARK  234  A    between atoms: _609  and  _611
REMARK  235  A    between atoms: _611  and  _612
REMARK  236  A    between atoms: _611  and  _614
REMARK  237  A    between atoms: _617  and  _619
REMARK  238  A    between atoms: _619  and  _620
REMARK  239  A    between atoms: _619  and  _622
REMARK  240  A    between atoms: _622  and  _623
REMARK  241  A    between atoms: _628  and  _630
REMARK  242  A    between atoms: _630  and  _631
REMARK  243  A    between atoms: _634  and  _636
REMARK  244  A    between atoms: _636  and  _637
REMARK  245  A    between atoms: _636  and  _639
REMARK  246  A    between atoms: _639  and  _640
REMARK  247  A    between atoms: _640  and  _641
REMARK  248  A    between atoms: _641  and  _642
REMARK  249  A    between atoms: _651  and  _653
REMARK  250  A    between atoms: _653  and  _654
REMARK  251  A    between atoms: _653  and  _656
REMARK  252  A    between atoms: _656  and  _657
REMARK  253  A    between atoms: _660  and  _662
REMARK  254  A    between atoms: _662  and  _663
REMARK  255  A    between atoms: _662  and  _665
REMARK  256  A    between atoms: _665  and  _666
REMARK  257  A    between atoms: _669  and  _671
REMARK  258  A    between atoms: _671  and  _672
REMARK  259  A    between atoms: _671  and  _674
REMARK  260  A    between atoms: _674  and  _675
REMARK                            x       y       z     vdW  Elec       q    Type
REMARK                         _______ _______ _______ _____ _____    ______ ____
ROOT
ATOM      1  CG  TYR A   1      -7.546  13.233  22.389  0.00  0.00    -0.020 A 
ATOM      2  CD2 TYR A   1      -8.270  14.374  22.740  0.00  0.00    -0.001 A 
ATOM      3  CE2 TYR A   1      -8.487  15.402  21.840  0.00  0.00    +0.036 A 
ATOM      4  CZ  TYR A   1      -7.977  15.294  20.566  0.00  0.00    +0.134 A 
ATOM      5  CE1 TYR A   1      -7.265  14.186  20.185  0.00  0.00    +0.036 A 
ATOM      6  CD1 TYR A   1      -7.054  13.163  21.104  0.00  0.00    -0.001 A 
ENDROOT
BRANCH   4   7
ATOM      7  OH  TYR A   1      -8.192  16.307  19.652  0.00  0.00    -0.506 OA
ATOM      8  HH  TYR A   1      -7.761  16.071  18.792  0.00  0.00    +0.292 HD
ENDBRANCH   4   7
BRANCH   1   9
ATOM      9  CB  TYR A   1      -7.343  12.131  23.399  0.00  0.00    +0.051 C 
BRANCH   9  10
ATOM     10  CA  TYR A   1      -5.991  11.974  24.084  0.00  0.00    +0.137 C 
BRANCH  10  11
ATOM     11  N   TYR A   1      -5.627  13.135  24.878  0.00  0.00    -0.239 NA
ATOM     12  H   TYR A   1      -5.019  13.871  24.466  0.00  0.00    +0.142 HD
ENDBRANCH  10  11
BRANCH  10  13
ATOM     13  C   TYR A   1      -4.944  11.638  23.022  0.00  0.00    +0.224 C 
ATOM     14  O   TYR A   1      -4.163  12.507  22.645  0.00  0.00    -0.287 OA
ENDBRANCH  10  13
ENDBRANCH   9  10
ENDBRANCH   1   9
TORSDOF 5
REMARK  Name = ../refined-set-2016/1b32/1b32_pocket.pdb
REMARK  260 active torsions:
REMARK  status: ('A' for Active; 'I' for Inactive)
REMARK    1  A    between atoms: _1  and  _3
REMARK    2  A    between atoms: _3  and  _4
REMARK    3  A    between atoms: _3  and  _6
REMARK    4  A    between atoms: _6  and  _7
REMARK    5  A    between atoms: _12  and  _14
REMARK    6  A    between atoms: _14  and  _15
REMARK    7  A    between atoms: _14  and  _17
REMARK    8  A    between atoms: _17  and  _18
REMARK    9  A    between atoms: _20  and  _22
REMARK   10  A    between atoms: _22  and  _23
REMARK   11  A    between atoms: _22  and  _25
REMARK   12  A    between atoms: _25  and  _26
REMARK   13  A    between atoms: _26  and  _27
REMARK   14  A    between atoms: _32  and  _34
REMARK   15  A    between atoms: _34  and  _35
REMARK   16  A    between atoms: _34  and  _37
REMARK   17  A    between atoms: _37  and  _38
REMARK   18  A    between atoms: _41  and  _43
REMARK   19  A    between atoms: _43  and  _44
REMARK   20  A    between atoms: _43  and  _46
REMARK   21  A    between atoms: _46  and  _47
REMARK   22  A    between atoms: _47  and  _48
REMARK   23  A    between atoms: _51  and  _53
REMARK   24  A    between atoms: _53  and  _54
REMARK   25  A    between atoms: _56  and  _58
REMARK   26  A    between atoms: _58  and  _59
REMARK   27  A    between atoms: _58  and  _61
REMARK   28  A    between atoms: _65  and  _66
REMARK   29  A    between atoms: _71  and  _73
REMARK   30  A    between atoms: _73  and  _74
REMARK   31  A    between atoms: _73  and  _76
REMARK   32  A    between atoms: _76  and  _77
REMARK   33  A    between atoms: _77  and  _78
REMARK   34  A    between atoms: _81  and  _83
REMARK   35  A    between atoms: _83  and  _84
REMARK   36  A    between atoms: _83  and  _86
REMARK   37  A    between atoms: _86  and  _87
REMARK   38  A    between atoms: _89  and  _91
REMARK   39  A    between atoms: _91  and  _92
REMARK   40  A    between atoms: _91  and  _94
REMARK   41  A    between atoms: _94  and  _95
REMARK   42  A    between atoms: _100  and  _102
REMARK   43  A    between atoms: _102  and  _103
REMARK   44  A    between atoms: _102  and  _105
REMARK   45  A    between atoms: _105  and  _106
REMARK   46  A    between atoms: _106  and  _107
REMARK   47  A    between atoms: _107  and  _108
REMARK   48  A    between atoms: _118  and  _119
REMARK   49  A    between atoms: _124  and  _126
REMARK   50  A    between atoms: _126  and  _127
REMARK   51  A    between atoms: _126  and  _129
REMARK   52  A    between atoms: _129  and  _130
REMARK   53  A    between atoms: _135  and  _136
REMARK   54  A    between atoms: _138  and  _140
REMARK   55  A    between atoms: _140  and  _141
REMARK   56  A    between atoms: _140  and  _143
REMARK   57  A    between atoms: _143  and  _144
REMARK   58  A    between atoms: _149  and  _150
REMARK   59  A    between atoms: _152  and  _154
REMARK   60  A    between atoms: _154  and  _155
REMARK   61  A    between atoms: _154  and  _157
REMARK   62  A    between atoms: _160  and  _162
REMARK   63  A    between atoms: _162  and  _163
REMARK   64  A    between atoms: _162  and  _165
REMARK   65  A    between atoms: _165  and  _166
REMARK   66  A    between atoms: _172  and  _173
REMARK   67  A    between atoms: _178  and  _180
REMARK   68  A    between atoms: _180  and  _181
REMARK   69  A    between atoms: _180  and  _183
REMARK   70  A    between atoms: _183  and  _184
REMARK   71  A    between atoms: _186  and  _188
REMARK   72  A    between atoms: _188  and  _189
REMARK   73  A    between atoms: _188  and  _191
REMARK   74  A    between atoms: _191  and  _192
REMARK   75  A    between atoms: _197  and  _198
REMARK   76  A    between atoms: _200  and  _202
REMARK   77  A    between atoms: _202  and  _203
REMARK   78  A    between atoms: _202  and  _205
REMARK   79  A    between atoms: _205  and  _206
REMARK   80  A    between atoms: _211  and  _213
REMARK   81  A    between atoms: _213  and  _214
REMARK   82  A    between atoms: _213  and  _216
REMARK   83  A    between atoms: _216  and  _217
REMARK   84  A    between atoms: _222  and  _224
REMARK   85  A    between atoms: _224  and  _225
REMARK   86  A    between atoms: _224  and  _227
REMARK   87  A    between atoms: _227  and  _228
REMARK   88  A    between atoms: _228  and  _229
REMARK   89  A    between atoms: _231  and  _233
REMARK   90  A    between atoms: _233  and  _234
REMARK   91  A    between atoms: _233  and  _236
REMARK   92  A    between atoms: _236  and  _237
REMARK   93  A    between atoms: _242  and  _243
REMARK   94  A    between atoms: _245  and  _247
REMARK   95  A    between atoms: _247  and  _248
REMARK   96  A    between atoms: _247  and  _250
REMARK   97  A    between atoms: _250  and  _251
REMARK   98  A    between atoms: _254  and  _256
REMARK   99  A    between atoms: _256  and  _257
REMARK  100  A    between atoms: _256  and  _259
REMARK  101  A    between atoms: _259  and  _260
REMARK  102  A    between atoms: _260  and  _477
REMARK  103  A    between atoms: _261  and  _263
REMARK  104  A    between atoms: _263  and  _264
REMARK  105  A    between atoms: _263  and  _266
REMARK  106  A    between atoms: _266  and  _267
REMARK  107  A    between atoms: _270  and  _272
REMARK  108  A    between atoms: _272  and  _273
REMARK  109  A    between atoms: _272  and  _275
REMARK  110  A    between atoms: _275  and  _276
REMARK  111  A    between atoms: _281  and  _282
REMARK  112  A    between atoms: _284  and  _286
REMARK  113  A    between atoms: _286  and  _287
REMARK  114  A    between atoms: _286  and  _289
REMARK  115  A    between atoms: _289  and  _290
REMARK  116  A    between atoms: _295  and  _296
REMARK  117  A    between atoms: _298  and  _300
REMARK  118  A    between atoms: _300  and  _301
REMARK  119  A    between atoms: _300  and  _303
REMARK  120  A    between atoms: _303  and  _304
REMARK  121  A    between atoms: _304  and  _305
REMARK  122  A    between atoms: _308  and  _310
REMARK  123  A    between atoms: _310  and  _311
REMARK  124  A    between atoms: _310  and  _313
REMARK  125  A    between atoms: _313  and  _314
REMARK  126  A    between atoms: _319  and  _320
REMARK  127  A    between atoms: _322  and  _324
REMARK  128  A    between atoms: _324  and  _325
REMARK  129  A    between atoms: _324  and  _327
REMARK  130  A    between atoms: _327  and  _328
REMARK  131  A    between atoms: _333  and  _335
REMARK  132  A    between atoms: _335  and  _336
REMARK  133  A    between atoms: _335  and  _338
REMARK  134  A    between atoms: _338  and  _339
REMARK  135  A    between atoms: _342  and  _344
REMARK  136  A    between atoms: _344  and  _345
REMARK  137  A    between atoms: _344  and  _347
REMARK  138  A    between atoms: _347  and  _348
REMARK  139  A    between atoms: _353  and  _355
REMARK  140  A    between atoms: _355  and  _356
REMARK  141  A    between atoms: _355  and  _358
REMARK  142  A    between atoms: _358  and  _359
REMARK  143  A    between atoms: _369  and  _371
REMARK  144  A    between atoms: _371  and  _372
REMARK  145  A    between atoms: _371  and  _374
REMARK  146  A    between atoms: _374  and  _375
REMARK  147  A    between atoms: _381  and  _383
REMARK  148  A    between atoms: _383  and  _384
REMARK  149  A    between atoms: _383  and  _386
REMARK  150  A    between atoms: _386  and  _387
REMARK  151  A    between atoms: _390  and  _392
REMARK  152  A    between atoms: _392  and  _393
REMARK  153  A    between atoms: _392  and  _395
REMARK  154  A    between atoms: _395  and  _396
REMARK  155  A    between atoms: _399  and  _401
REMARK  156  A    between atoms: _401  and  _402
REMARK  157  A    between atoms: _401  and  _404
REMARK  158  A    between atoms: _404  and  _405
REMARK  159  A    between atoms: _405  and  _406
REMARK  160  A    between atoms: _406  and  _407
REMARK  161  A    between atoms: _416  and  _418
REMARK  162  A    between atoms: _418  and  _419
REMARK  163  A    between atoms: _418  and  _421
REMARK  164  A    between atoms: _421  and  _422
REMARK  165  A    between atoms: _427  and  _429
REMARK  166  A    between atoms: _429  and  _430
REMARK  167  A    between atoms: _429  and  _432
REMARK  168  A    between atoms: _432  and  _433
REMARK  169  A    between atoms: _433  and  _434
REMARK  170  A    between atoms: _434  and  _435
REMARK  171  A    between atoms: _444  and  _446
REMARK  172  A    between atoms: _446  and  _447
REMARK  173  A    between atoms: _450  and  _452
REMARK  174  A    between atoms: _452  and  _453
REMARK  175  A    between atoms: _455  and  _457
REMARK  176  A    between atoms: _457  and  _458
REMARK  177  A    between atoms: _457  and  _460
REMARK  178  A    between atoms: _460  and  _461
REMARK  179  A    between atoms: _471  and  _473
REMARK  180  A    between atoms: _473  and  _474
REMARK  181  A    between atoms: _473  and  _476
REMARK  182  A    between atoms: _476  and  _477
REMARK  183  A    between atoms: _478  and  _480
REMARK  184  A    between atoms: _480  and  _481
REMARK  185  A    between atoms: _484  and  _486
REMARK  186  A    between atoms: _486  and  _487
REMARK  187  A    between atoms: _486  and  _489
REMARK  188  A    between atoms: _489  and  _490
REMARK  189  A    between atoms: _493  and  _495
REMARK  190  A    between atoms: _495  and  _496
REMARK  191  A    between atoms: _495  and  _498
REMARK  192  A    between atoms: _498  and  _499
REMARK  193  A    between atoms: _504  and  _505
REMARK  194  A    between atoms: _507  and  _509
REMARK  195  A    between atoms: _509  and  _510
REMARK  196  A    between atoms: _509  and  _512
REMARK  197  A    between atoms: _512  and  _513
REMARK  198  A    between atoms: _515  and  _517
REMARK  199  A    between atoms: _517  and  _518
REMARK  200  A    between atoms: _517  and  _520
REMARK  201  A    between atoms: _520  and  _521
REMARK  202  A    between atoms: _527  and  _529
REMARK  203  A    between atoms: _529  and  _530
REMARK  204  A    between atoms: _529  and  _532
REMARK  205  A    between atoms: _532  and  _533
REMARK  206  A    between atoms: _536  and  _538
REMARK  207  A    between atoms: _538  and  _539
REMARK  208  A    between atoms: _538  and  _541
REMARK  209  A    between atoms: _541  and  _542
REMARK  210  A    between atoms: _544  and  _546
REMARK  211  A    between atoms: _546  and  _547
REMARK  212  A    between atoms: _546  and  _549
REMARK  213  A    between atoms: _549  and  _550
REMARK  214  A    between atoms: _555  and  _557
REMARK  215  A    between atoms: _557  and  _558
REMARK  216  A    between atoms: _557  and  _560
REMARK  217  A    between atoms: _560  and  _561
REMARK  218  A    between atoms: _566  and  _568
REMARK  219  A    between atoms: _568  and  _569
REMARK  220  A    between atoms: _568  and  _571
REMARK  221  A    between atoms: _571  and  _572
REMARK  222  A    between atoms: _575  and  _577
REMARK  223  A    between atoms: _577  and  _578
REMARK  224  A    between atoms: _581  and  _583
REMARK  225  A    between atoms: _583  and  _584
REMARK  226  A    between atoms: _583  and  _586
REMARK  227  A    between atoms: _586  and  _587
REMARK  228  A    between atoms: _592  and  _593
REMARK  229  A    between atoms: _595  and  _597
REMARK  230  A    between atoms: _597  and  _598
REMARK  231  A    between atoms: _597  and  _600
REMARK  232  A    between atoms: _600  and  _601
REMARK  233  A    between atoms: _606  and  _607
REMARK  234  A    between atoms: _609  and  _611
REMARK  235  A    between atoms: _611  and  _612
REMARK  236  A    between atoms: _611  and  _614
REMARK  237  A    between atoms: _617  and  _619
REMARK  238  A    between atoms: _619  and  _620
REMARK  239  A    between atoms: _619  and  _622
REMARK  240  A    between atoms: _622  and  _623
REMARK  241  A    between atoms: _628  and  _630
REMARK  242  A    between atoms: _630  and  _631
REMARK  243  A    between atoms: _634  and  _636
REMARK  244  A    between atoms: _636  and  _637
REMARK  245  A    between atoms: _636  and  _639
REMARK  246  A    between atoms: _639  and  _640
REMARK  247  A    between atoms: _640  and  _641
REMARK  248  A    between atoms: _641  and  _642
REMARK  249  A    between atoms: _651  and  _653
REMARK  250  A    between atoms: _653  and  _654
REMARK  251  A    between atoms: _653  and  _656
REMARK  252  A    between atoms: _656  and  _657
REMARK  253  A    between atoms: _660  and  _662
REMARK  254  A    between atoms: _662  and  _663
REMARK  255  A    between atoms: _662  and  _665
REMARK  256  A    between atoms: _665  and  _666
REMARK  257  A    between atoms: _669  and  _671
REMARK  258  A    between atoms: _671  and  _672
REMARK  259  A    between atoms: _671  and  _674
REMARK  260  A    between atoms: _674  and  _675
REMARK                            x       y       z     vdW  Elec       q    Type
REMARK                         _______ _______ _______ _____ _____    ______ ____
ROOT
ATOM      1  CA  ASN A   3      -6.142  10.794  11.729  0.00  0.00    +0.158 C 
ENDROOT
BRANCH   1   4
ATOM      2  C   VAL A   2      -6.657  10.451  14.065  0.00  0.00    +0.241 C 
ATOM      3  O   VAL A   2      -6.853  11.668  14.247  0.00  0.00    -0.273 OA
ATOM      4  N   ASN A   3      -6.306   9.947  12.909  0.00  0.00    -0.297 N 
ATOM      5  H   ASN A   3      -6.140   8.923  12.829  0.00  0.00    +0.150 HD
BRANCH   2   6
ATOM      6  CA  VAL A   2      -6.868   9.466  15.223  0.00  0.00    +0.148 C 
BRANCH   6   9
ATOM      7  C   TYR A   1      -5.528  10.149  17.111  0.00  0.00    +0.239 C 
ATOM      8  O   TYR A   1      -4.745   9.243  16.992  0.00  0.00    -0.274 OA
ATOM      9  N   VAL A   2      -6.635  10.303  16.381  0.00  0.00    -0.297 N 
ATOM     10  H   VAL A   2      -7.333  11.027  16.645  0.00  0.00    +0.150 HD
BRANCH   7  11
ATOM     11  CA  TYR A   1      -5.275  11.366  18.024  0.00  0.00    +0.149 C 
BRANCH  11  12
ATOM     12  N   TYR A   1      -4.477  11.043  19.174  0.00  0.00    -0.238 NA
ATOM     13  H   TYR A   1      -3.499  11.392  19.240  0.00  0.00    +0.142 HD
ENDBRANCH  11  12
BRANCH  11  14
ATOM     14  CB  TYR A   1      -4.551  12.314  17.067  0.00  0.00    +0.053 C 
BRANCH  14  15
ATOM     15  CG  TYR A   1      -4.250  13.738  17.372  0.00  0.00    -0.020 A 
ATOM     16  CD2 TYR A   1      -3.381  14.134  18.390  0.00  0.00    -0.001 A 
ATOM     17  CE2 TYR A   1      -3.085  15.471  18.609  0.00  0.00    +0.036 A 
ATOM     18  CZ  TYR A   1      -3.674  16.430  17.805  0.00  0.00    +0.134 A 
ATOM     19  CE1 TYR A   1      -4.549  16.070  16.820  0.00  0.00    +0.036 A 
ATOM     20  CD1 TYR A   1      -4.796  14.741  16.567  0.00  0.00    -0.001 A 
BRANCH  18  21
ATOM     21  OH  TYR A   1      -3.365  17.755  18.043  0.00  0.00    -0.506 OA
ATOM     22  HH  TYR A   1      -2.966  18.151  17.228  0.00  0.00    +0.292 HD
ENDBRANCH  18  21
ENDBRANCH  14  15
ENDBRANCH  11  14
ENDBRANCH   7  11
ENDBRANCH   6   9
BRANCH   6  23
ATOM     23  CB  VAL A   2      -8.239   8.808  15.073  0.00  0.00    +0.027 C 
ATOM     24  CG2 VAL A   2      -8.371   7.659  16.071  0.00  0.00    +0.002 C 
ATOM     25  CG1 VAL A   2      -9.326   9.841  15.214  0.00  0.00    +0.002 C 
ENDBRANCH   6  23
ENDBRANCH   2   6
ENDBRANCH   1   4
BRANCH   1  26
ATOM     26  C   ASN A   3      -7.440  10.810  10.929  0.00  0.00    +0.241 C 
ATOM     27  N   ALA A   4      -8.320  11.750  11.244  0.00  0.00    -0.297 N 
ATOM     28  H   ALA A   4      -8.063  12.437  11.981  0.00  0.00    +0.150 HD
ATOM     29  O   ASN A   3      -7.636   9.952  10.059  0.00  0.00    -0.273 OA
BRANCH  27  30
ATOM     30  CA  ALA A   4      -9.622  11.872  10.617  0.00  0.00    +0.149 C 
ATOM     31  CB  ALA A   4     -10.672  12.132  11.705  0.00  0.00    +0.031 C 
BRANCH  30  32
ATOM     32  C   ALA A   4      -9.643  13.054   9.642  0.00  0.00    +0.241 C 
ATOM     33  O   ALA A   4      -9.353  14.197  10.031  0.00  0.00    -0.273 OA
ATOM     34  N   ARG A   5     -10.047  12.775   8.409  0.00  0.00    -0.298 N 
ATOM     35  H   ARG A   5     -10.320  11.806   8.147  0.00  0.00    +0.150 HD
BRANCH  34  36
ATOM     36  CA  ARG A   5     -10.101  13.856   7.425  0.00  0.00    +0.137 C 
BRANCH  36  37
ATOM     37  C   ARG A   5     -11.050  13.403   6.316  0.00  0.00    +0.227 C 
ATOM     38  O   ARG A   5     -11.284  12.195   6.189  0.00  0.00    -0.286 OA
ENDBRANCH  36  37
BRANCH  36  39
ATOM     39  CB  ARG A   5      -8.720  14.107   6.794  0.00  0.00    +0.031 C 
BRANCH  39  40
ATOM     40  CG  ARG A   5      -8.068  12.871   6.212  0.00  0.00    +0.045 C 
BRANCH  40  41
ATOM     41  CD  ARG A   5      -7.126  13.099   5.058  0.00  0.00    +0.174 C 
BRANCH  41  42
ATOM     42  NE  ARG A   5      -6.127  14.117   5.139  0.00  0.00    -0.265 N 
ATOM     43  CZ  ARG A   5      -4.892  14.134   5.620  0.00  0.00    +0.342 C 
ATOM     44  NH2 ARG A   5      -4.343  13.076   6.173  0.00  0.00    -0.292 N 
ATOM     45 HH21 ARG A   5      -3.371  13.126   6.540  0.00  0.00    +0.255 HD
ATOM     46 HH22 ARG A   5      -4.880  12.188   6.244  0.00  0.00    +0.255 HD
ATOM     47  NH1 ARG A   5      -4.206  15.267   5.527  0.00  0.00    -0.292 N 
ATOM     48 HH11 ARG A   5      -3.234  15.318   5.893  0.00  0.00    +0.255 HD
ATOM     49 HH12 ARG A   5      -4.641  16.103   5.088  0.00  0.00    +0.255 HD
ATOM     50  HE  ARG A   5      -6.430  15.029   4.740  0.00  0.00    +0.259 HD
ENDBRANCH  41  42
ENDBRANCH  40  41
ENDBRANCH  39  40
ENDBRANCH  36  39
ENDBRANCH  34  36
ENDBRANCH  30  32
ENDBRANCH  27  30
ENDBRANCH   1  26
BRANCH   1  51
ATOM     51  CB  ASN A   3      -4.963  10.244  10.928  0.00  0.00    +0.114 C 
BRANCH  51  52
ATOM     52  CG  ASN A   3      -4.667  11.096   9.702  0.00  0.00    +0.222 C 
ATOM     53  OD1 ASN A   3      -5.331  12.096   9.453  0.00  0.00    -0.275 OA
ATOM     54  ND2 ASN A   3      -3.673  10.716   8.925  0.00  0.00    -0.329 N 
ATOM     55 HD21 ASN A   3      -3.126   9.863   9.160  0.00  0.00    +0.145 HD
ATOM     56 HD22 ASN A   3      -3.435  11.269   8.077  0.00  0.00    +0.145 HD
ENDBRANCH  51  52
ENDBRANCH   1  51
TORSDOF 20
REMARK  Name = ../refined-set-2016/1b32/1b32_pocket.pdb
REMARK  260 active torsions:
REMARK  status: ('A' for Active; 'I' for Inactive)
REMARK    1  A    between atoms: _1  and  _3
REMARK    2  A    between atoms: _3  and  _4
REMARK    3  A    between atoms: _3  and  _6
REMARK    4  A    between atoms: _6  and  _7
REMARK    5  A    between atoms: _12  and  _14
REMARK    6  A    between atoms: _14  and  _15
REMARK    7  A    between atoms: _14  and  _17
REMARK    8  A    between atoms: _17  and  _18
REMARK    9  A    between atoms: _20  and  _22
REMARK   10  A    between atoms: _22  and  _23
REMARK   11  A    between atoms: _22  and  _25
REMARK   12  A    between atoms: _25  and  _26
REMARK   13  A    between atoms: _26  and  _27
REMARK   14  A    between atoms: _32  and  _34
REMARK   15  A    between atoms: _34  and  _35
REMARK   16  A    between atoms: _34  and  _37
REMARK   17  A    between atoms: _37  and  _38
REMARK   18  A    between atoms: _41  and  _43
REMARK   19  A    between atoms: _43  and  _44
REMARK   20  A    between atoms: _43  and  _46
REMARK   21  A    between atoms: _46  and  _47
REMARK   22  A    between atoms: _47  and  _48
REMARK   23  A    between atoms: _51  and  _53
REMARK   24  A    between atoms: _53  and  _54
REMARK   25  A    between atoms: _56  and  _58
REMARK   26  A    between atoms: _58  and  _59
REMARK   27  A    between atoms: _58  and  _61
REMARK   28  A    between atoms: _65  and  _66
REMARK   29  A    between atoms: _71  and  _73
REMARK   30  A    between atoms: _73  and  _74
REMARK   31  A    between atoms: _73  and  _76
REMARK   32  A    between atoms: _76  and  _77
REMARK   33  A    between atoms: _77  and  _78
REMARK   34  A    between atoms: _81  and  _83
REMARK   35  A    between atoms: _83  and  _84
REMARK   36  A    between atoms: _83  and  _86
REMARK   37  A    between atoms: _86  and  _87
REMARK   38  A    between atoms: _89  and  _91
REMARK   39  A    between atoms: _91  and  _92
REMARK   40  A    between atoms: _91  and  _94
REMARK   41  A    between atoms: _94  and  _95
REMARK   42  A    between atoms: _100  and  _102
REMARK   43  A    between atoms: _102  and  _103
REMARK   44  A    between atoms: _102  and  _105
REMARK   45  A    between atoms: _105  and  _106
REMARK   46  A    between atoms: _106  and  _107
REMARK   47  A    between atoms: _107  and  _108
REMARK   48  A    between atoms: _118  and  _119
REMARK   49  A    between atoms: _124  and  _126
REMARK   50  A    between atoms: _126  and  _127
REMARK   51  A    between atoms: _126  and  _129
REMARK   52  A    between atoms: _129  and  _130
REMARK   53  A    between atoms: _135  and  _136
REMARK   54  A    between atoms: _138  and  _140
REMARK   55  A    between atoms: _140  and  _141
REMARK   56  A    between atoms: _140  and  _143
REMARK   57  A    between atoms: _143  and  _144
REMARK   58  A    between atoms: _149  and  _150
REMARK   59  A    between atoms: _152  and  _154
REMARK   60  A    between atoms: _154  and  _155
REMARK   61  A    between atoms: _154  and  _157
REMARK   62  A    between atoms: _160  and  _162
REMARK   63  A    between atoms: _162  and  _163
REMARK   64  A    between atoms: _162  and  _165
REMARK   65  A    between atoms: _165  and  _166
REMARK   66  A    between atoms: _172  and  _173
REMARK   67  A    between atoms: _178  and  _180
REMARK   68  A    between atoms: _180  and  _181
REMARK   69  A    between atoms: _180  and  _183
REMARK   70  A    between atoms: _183  and  _184
REMARK   71  A    between atoms: _186  and  _188
REMARK   72  A    between atoms: _188  and  _189
REMARK   73  A    between atoms: _188  and  _191
REMARK   74  A    between atoms: _191  and  _192
REMARK   75  A    between atoms: _197  and  _198
REMARK   76  A    between atoms: _200  and  _202
REMARK   77  A    between atoms: _202  and  _203
REMARK   78  A    between atoms: _202  and  _205
REMARK   79  A    between atoms: _205  and  _206
REMARK   80  A    between atoms: _211  and  _213
REMARK   81  A    between atoms: _213  and  _214
REMARK   82  A    between atoms: _213  and  _216
REMARK   83  A    between atoms: _216  and  _217
REMARK   84  A    between atoms: _222  and  _224
REMARK   85  A    between atoms: _224  and  _225
REMARK   86  A    between atoms: _224  and  _227
REMARK   87  A    between atoms: _227  and  _228
REMARK   88  A    between atoms: _228  and  _229
REMARK   89  A    between atoms: _231  and  _233
REMARK   90  A    between atoms: _233  and  _234
REMARK   91  A    between atoms: _233  and  _236
REMARK   92  A    between atoms: _236  and  _237
REMARK   93  A    between atoms: _242  and  _243
REMARK   94  A    between atoms: _245  and  _247
REMARK   95  A    between atoms: _247  and  _248
REMARK   96  A    between atoms: _247  and  _250
REMARK   97  A    between atoms: _250  and  _251
REMARK   98  A    between atoms: _254  and  _256
REMARK   99  A    between atoms: _256  and  _257
REMARK  100  A    between atoms: _256  and  _259
REMARK  101  A    between atoms: _259  and  _260
REMARK  102  A    between atoms: _260  and  _477
REMARK  103  A    between atoms: _261  and  _263
REMARK  104  A    between atoms: _263  and  _264
REMARK  105  A    between atoms: _263  and  _266
REMARK  106  A    between atoms: _266  and  _267
REMARK  107  A    between atoms: _270  and  _272
REMARK  108  A    between atoms: _272  and  _273
REMARK  109  A    between atoms: _272  and  _275
REMARK  110  A    between atoms: _275  and  _276
REMARK  111  A    between atoms: _281  and  _282
REMARK  112  A    between atoms: _284  and  _286
REMARK  113  A    between atoms: _286  and  _287
REMARK  114  A    between atoms: _286  and  _289
REMARK  115  A    between atoms: _289  and  _290
REMARK  116  A    between atoms: _295  and  _296
REMARK  117  A    between atoms: _298  and  _300
REMARK  118  A    between atoms: _300  and  _301
REMARK  119  A    between atoms: _300  and  _303
REMARK  120  A    between atoms: _303  and  _304
REMARK  121  A    between atoms: _304  and  _305
REMARK  122  A    between atoms: _308  and  _310
REMARK  123  A    between atoms: _310  and  _311
REMARK  124  A    between atoms: _310  and  _313
REMARK  125  A    between atoms: _313  and  _314
REMARK  126  A    between atoms: _319  and  _320
REMARK  127  A    between atoms: _322  and  _324
REMARK  128  A    between atoms: _324  and  _325
REMARK  129  A    between atoms: _324  and  _327
REMARK  130  A    between atoms: _327  and  _328
REMARK  131  A    between atoms: _333  and  _335
REMARK  132  A    between atoms: _335  and  _336
REMARK  133  A    between atoms: _335  and  _338
REMARK  134  A    between atoms: _338  and  _339
REMARK  135  A    between atoms: _342  and  _344
REMARK  136  A    between atoms: _344  and  _345
REMARK  137  A    between atoms: _344  and  _347
REMARK  138  A    between atoms: _347  and  _348
REMARK  139  A    between atoms: _353  and  _355
REMARK  140  A    between atoms: _355  and  _356
REMARK  141  A    between atoms: _355  and  _358
REMARK  142  A    between atoms: _358  and  _359
REMARK  143  A    between atoms: _369  and  _371
REMARK  144  A    between atoms: _371  and  _372
REMARK  145  A    between atoms: _371  and  _374
REMARK  146  A    between atoms: _374  and  _375
REMARK  147  A    between atoms: _381  and  _383
REMARK  148  A    between atoms: _383  and  _384
REMARK  149  A    between atoms: _383  and  _386
REMARK  150  A    between atoms: _386  and  _387
REMARK  151  A    between atoms: _390  and  _392
REMARK  152  A    between atoms: _392  and  _393
REMARK  153  A    between atoms: _392  and  _395
REMARK  154  A    between atoms: _395  and  _396
REMARK  155  A    between atoms: _399  and  _401
REMARK  156  A    between atoms: _401  and  _402
REMARK  157  A    between atoms: _401  and  _404
REMARK  158  A    between atoms: _404  and  _405
REMARK  159  A    between atoms: _405  and  _406
REMARK  160  A    between atoms: _406  and  _407
REMARK  161  A    between atoms: _416  and  _418
REMARK  162  A    between atoms: _418  and  _419
REMARK  163  A    between atoms: _418  and  _421
REMARK  164  A    between atoms: _421  and  _422
REMARK  165  A    between atoms: _427  and  _429
REMARK  166  A    between atoms: _429  and  _430
REMARK  167  A    between atoms: _429  and  _432
REMARK  168  A    between atoms: _432  and  _433
REMARK  169  A    between atoms: _433  and  _434
REMARK  170  A    between atoms: _434  and  _435
REMARK  171  A    between atoms: _444  and  _446
REMARK  172  A    between atoms: _446  and  _447
REMARK  173  A    between atoms: _450  and  _452
REMARK  174  A    between atoms: _452  and  _453
REMARK  175  A    between atoms: _455  and  _457
REMARK  176  A    between atoms: _457  and  _458
REMARK  177  A    between atoms: _457  and  _460
REMARK  178  A    between atoms: _460  and  _461
REMARK  179  A    between atoms: _471  and  _473
REMARK  180  A    between atoms: _473  and  _474
REMARK  181  A    between atoms: _473  and  _476
REMARK  182  A    between atoms: _476  and  _477
REMARK  183  A    between atoms: _478  and  _480
REMARK  184  A    between atoms: _480  and  _481
REMARK  185  A    between atoms: _484  and  _486
REMARK  186  A    between atoms: _486  and  _487
REMARK  187  A    between atoms: _486  and  _489
REMARK  188  A    between atoms: _489  and  _490
REMARK  189  A    between atoms: _493  and  _495
REMARK  190  A    between atoms: _495  and  _496
REMARK  191  A    between atoms: _495  and  _498
REMARK  192  A    between atoms: _498  and  _499
REMARK  193  A    between atoms: _504  and  _505
REMARK  194  A    between atoms: _507  and  _509
REMARK  195  A    between atoms: _509  and  _510
REMARK  196  A    between atoms: _509  and  _512
REMARK  197  A    between atoms: _512  and  _513
REMARK  198  A    between atoms: _515  and  _517
REMARK  199  A    between atoms: _517  and  _518
REMARK  200  A    between atoms: _517  and  _520
REMARK  201  A    between atoms: _520  and  _521
REMARK  202  A    between atoms: _527  and  _529
REMARK  203  A    between atoms: _529  and  _530
REMARK  204  A    between atoms: _529  and  _532
REMARK  205  A    between atoms: _532  and  _533
REMARK  206  A    between atoms: _536  and  _538
REMARK  207  A    between atoms: _538  and  _539
REMARK  208  A    between atoms: _538  and  _541
REMARK  209  A    between atoms: _541  and  _542
REMARK  210  A    between atoms: _544  and  _546
REMARK  211  A    between atoms: _546  and  _547
REMARK  212  A    between atoms: _546  and  _549
REMARK  213  A    between atoms: _549  and  _550
REMARK  214  A    between atoms: _555  and  _557
REMARK  215  A    between atoms: _557  and  _558
REMARK  216  A    between atoms: _557  and  _560
REMARK  217  A    between atoms: _560  and  _561
REMARK  218  A    between atoms: _566  and  _568
REMARK  219  A    between atoms: _568  and  _569
REMARK  220  A    between atoms: _568  and  _571
REMARK  221  A    between atoms: _571  and  _572
REMARK  222  A    between atoms: _575  and  _577
REMARK  223  A    between atoms: _577  and  _578
REMARK  224  A    between atoms: _581  and  _583
REMARK  225  A    between atoms: _583  and  _584
REMARK  226  A    between atoms: _583  and  _586
REMARK  227  A    between atoms: _586  and  _587
REMARK  228  A    between atoms: _592  and  _593
REMARK  229  A    between atoms: _595  and  _597
REMARK  230  A    between atoms: _597  and  _598
REMARK  231  A    between atoms: _597  and  _600
REMARK  232  A    between atoms: _600  and  _601
REMARK  233  A    between atoms: _606  and  _607
REMARK  234  A    between atoms: _609  and  _611
REMARK  235  A    between atoms: _611  and  _612
REMARK  236  A    between atoms: _611  and  _614
REMARK  237  A    between atoms: _617  and  _619
REMARK  238  A    between atoms: _619  and  _620
REMARK  239  A    between atoms: _619  and  _622
REMARK  240  A    between atoms: _622  and  _623
REMARK  241  A    between atoms: _628  and  _630
REMARK  242  A    between atoms: _630  and  _631
REMARK  243  A    between atoms: _634  and  _636
REMARK  244  A    between atoms: _636  and  _637
REMARK  245  A    between atoms: _636  and  _639
REMARK  246  A    between atoms: _639  and  _640
REMARK  247  A    between atoms: _640  and  _641
REMARK  248  A    between atoms: _641  and  _642
REMARK  249  A    between atoms: _651  and  _653
REMARK  250  A    between atoms: _653  and  _654
REMARK  251  A    between atoms: _653  and  _656
REMARK  252  A    between atoms: _656  and  _657
REMARK  253  A    between atoms: _660  and  _662
REMARK  254  A    between atoms: _662  and  _663
REMARK  255  A    between atoms: _662  and  _665
REMARK  256  A    between atoms: _665  and  _666
REMARK  257  A    between atoms: _669  and  _671
REMARK  258  A    between atoms: _671  and  _672
REMARK  259  A    between atoms: _671  and  _674
REMARK  260  A    between atoms: _674  and  _675
REMARK                            x       y       z     vdW  Elec       q    Type
REMARK                         _______ _______ _______ _____ _____    ______ ____
ROOT
ATOM      1  CA  ASP A   2       0.762  10.692   7.650  0.00  0.00    +0.160 C 
ENDROOT
BRANCH   1   4
ATOM      2  C   LEU A   1       2.287  10.342   9.555  0.00  0.00    +0.238 C 
ATOM      3  O   LEU A   1       2.517  11.562   9.625  0.00  0.00    -0.274 OA
ATOM      4  N   ASP A   2       1.458   9.862   8.633  0.00  0.00    -0.297 N 
ATOM      5  H   ASP A   2       1.295   8.835   8.609  0.00  0.00    +0.150 HD
BRANCH   2   6
ATOM      6  CA  LEU A   1       2.950   9.370  10.524  0.00  0.00    +0.145 C 
BRANCH   6   7
ATOM      7  N   LEU A   1       2.339   8.056  10.488  0.00  0.00    -0.238 NA
ATOM      8  H   LEU A   1       2.678   7.366   9.787  0.00  0.00    +0.142 HD
ENDBRANCH   6   7
BRANCH   6   9
ATOM      9  CB  LEU A   1       4.464   9.333  10.241  0.00  0.00    +0.026 C 
BRANCH   9  10
ATOM     10  CG  LEU A   1       5.308   8.428  11.144  0.00  0.00    +0.002 C 
ATOM     11  CD2 LEU A   1       5.088   8.744  12.596  0.00  0.00    +0.000 C 
ATOM     12  CD1 LEU A   1       6.800   8.500  10.829  0.00  0.00    +0.000 C 
ENDBRANCH   9  10
ENDBRANCH   6   9
ENDBRANCH   2   6
ENDBRANCH   1   4
BRANCH   1  13
ATOM     13  C   ASP A   2       1.721  11.571   6.843  0.00  0.00    +0.241 C 
ATOM     14  O   ASP A   2       1.474  12.768   6.554  0.00  0.00    -0.273 OA
ATOM     15  N   ASN A   3       2.800  10.918   6.384  0.00  0.00    -0.298 N 
ATOM     16  H   ASN A   3       2.929   9.915   6.625  0.00  0.00    +0.150 HD
BRANCH  15  17
ATOM     17  CA  ASN A   3       3.803  11.594   5.547  0.00  0.00    +0.146 C 
BRANCH  17  18
ATOM     18  C   ASN A   3       3.377  11.499   4.082  0.00  0.00    +0.227 C 
ATOM     19  O   ASN A   3       3.990  10.816   3.289  0.00  0.00    -0.286 OA
ENDBRANCH  17  18
BRANCH  17  20
ATOM     20  CB  ASN A   3       5.185  10.975   5.758  0.00  0.00    +0.112 C 
BRANCH  20  21
ATOM     21  CG  ASN A   3       5.880  11.488   7.014  0.00  0.00    +0.222 C 
ATOM     22  ND2 ASN A   3       6.554  10.583   7.716  0.00  0.00    -0.329 N 
ATOM     23 HD21 ASN A   3       7.071  10.868   8.572  0.00  0.00    +0.145 HD
ATOM     24 HD22 ASN A   3       6.565   9.589   7.409  0.00  0.00    +0.145 HD
ATOM     25  OD1 ASN A   3       5.845  12.663   7.344  0.00  0.00    -0.275 OA
ENDBRANCH  20  21
ENDBRANCH  17  20
ENDBRANCH  15  17
ENDBRANCH   1  13
BRANCH   1  26
ATOM     26  CB  ASP A   2      -0.339  11.541   8.274  0.00  0.00    +0.143 C 
BRANCH  26  27
ATOM     27  CG  ASP A   2      -1.392  11.939   7.254  0.00  0.00    +0.367 C 
ATOM     28  OD2 ASP A   2      -1.814  13.100   7.267  0.00  0.00    -0.246 OA
ATOM     29  OD1 ASP A   2      -1.773  11.124   6.396  0.00  0.00    -0.246 OA
ENDBRANCH  26  27
ENDBRANCH   1  26
TORSDOF 12
REMARK  Name = ../refined-set-2016/1b32/1b32_pocket.pdb
REMARK  260 active torsions:
REMARK  status: ('A' for Active; 'I' for Inactive)
REMARK    1  A    between atoms: _1  and  _3
REMARK    2  A    between atoms: _3  and  _4
REMARK    3  A    between atoms: _3  and  _6
REMARK    4  A    between atoms: _6  and  _7
REMARK    5  A    between atoms: _12  and  _14
REMARK    6  A    between atoms: _14  and  _15
REMARK    7  A    between atoms: _14  and  _17
REMARK    8  A    between atoms: _17  and  _18
REMARK    9  A    between atoms: _20  and  _22
REMARK   10  A    between atoms: _22  and  _23
REMARK   11  A    between atoms: _22  and  _25
REMARK   12  A    between atoms: _25  and  _26
REMARK   13  A    between atoms: _26  and  _27
REMARK   14  A    between atoms: _32  and  _34
REMARK   15  A    between atoms: _34  and  _35
REMARK   16  A    between atoms: _34  and  _37
REMARK   17  A    between atoms: _37  and  _38
REMARK   18  A    between atoms: _41  and  _43
REMARK   19  A    between atoms: _43  and  _44
REMARK   20  A    between atoms: _43  and  _46
REMARK   21  A    between atoms: _46  and  _47
REMARK   22  A    between atoms: _47  and  _48
REMARK   23  A    between atoms: _51  and  _53
REMARK   24  A    between atoms: _53  and  _54
REMARK   25  A    between atoms: _56  and  _58
REMARK   26  A    between atoms: _58  and  _59
REMARK   27  A    between atoms: _58  and  _61
REMARK   28  A    between atoms: _65  and  _66
REMARK   29  A    between atoms: _71  and  _73
REMARK   30  A    between atoms: _73  and  _74
REMARK   31  A    between atoms: _73  and  _76
REMARK   32  A    between atoms: _76  and  _77
REMARK   33  A    between atoms: _77  and  _78
REMARK   34  A    between atoms: _81  and  _83
REMARK   35  A    between atoms: _83  and  _84
REMARK   36  A    between atoms: _83  and  _86
REMARK   37  A    between atoms: _86  and  _87
REMARK   38  A    between atoms: _89  and  _91
REMARK   39  A    between atoms: _91  and  _92
REMARK   40  A    between atoms: _91  and  _94
REMARK   41  A    between atoms: _94  and  _95
REMARK   42  A    between atoms: _100  and  _102
REMARK   43  A    between atoms: _102  and  _103
REMARK   44  A    between atoms: _102  and  _105
REMARK   45  A    between atoms: _105  and  _106
REMARK   46  A    between atoms: _106  and  _107
REMARK   47  A    between atoms: _107  and  _108
REMARK   48  A    between atoms: _118  and  _119
REMARK   49  A    between atoms: _124  and  _126
REMARK   50  A    between atoms: _126  and  _127
REMARK   51  A    between atoms: _126  and  _129
REMARK   52  A    between atoms: _129  and  _130
REMARK   53  A    between atoms: _135  and  _136
REMARK   54  A    between atoms: _138  and  _140
REMARK   55  A    between atoms: _140  and  _141
REMARK   56  A    between atoms: _140  and  _143
REMARK   57  A    between atoms: _143  and  _144
REMARK   58  A    between atoms: _149  and  _150
REMARK   59  A    between atoms: _152  and  _154
REMARK   60  A    between atoms: _154  and  _155
REMARK   61  A    between atoms: _154  and  _157
REMARK   62  A    between atoms: _160  and  _162
REMARK   63  A    between atoms: _162  and  _163
REMARK   64  A    between atoms: _162  and  _165
REMARK   65  A    between atoms: _165  and  _166
REMARK   66  A    between atoms: _172  and  _173
REMARK   67  A    between atoms: _178  and  _180
REMARK   68  A    between atoms: _180  and  _181
REMARK   69  A    between atoms: _180  and  _183
REMARK   70  A    between atoms: _183  and  _184
REMARK   71  A    between atoms: _186  and  _188
REMARK   72  A    between atoms: _188  and  _189
REMARK   73  A    between atoms: _188  and  _191
REMARK   74  A    between atoms: _191  and  _192
REMARK   75  A    between atoms: _197  and  _198
REMARK   76  A    between atoms: _200  and  _202
REMARK   77  A    between atoms: _202  and  _203
REMARK   78  A    between atoms: _202  and  _205
REMARK   79  A    between atoms: _205  and  _206
REMARK   80  A    between atoms: _211  and  _213
REMARK   81  A    between atoms: _213  and  _214
REMARK   82  A    between atoms: _213  and  _216
REMARK   83  A    between atoms: _216  and  _217
REMARK   84  A    between atoms: _222  and  _224
REMARK   85  A    between atoms: _224  and  _225
REMARK   86  A    between atoms: _224  and  _227
REMARK   87  A    between atoms: _227  and  _228
REMARK   88  A    between atoms: _228  and  _229
REMARK   89  A    between atoms: _231  and  _233
REMARK   90  A    between atoms: _233  and  _234
REMARK   91  A    between atoms: _233  and  _236
REMARK   92  A    between atoms: _236  and  _237
REMARK   93  A    between atoms: _242  and  _243
REMARK   94  A    between atoms: _245  and  _247
REMARK   95  A    between atoms: _247  and  _248
REMARK   96  A    between atoms: _247  and  _250
REMARK   97  A    between atoms: _250  and  _251
REMARK   98  A    between atoms: _254  and  _256
REMARK   99  A    between atoms: _256  and  _257
REMARK  100  A    between atoms: _256  and  _259
REMARK  101  A    between atoms: _259  and  _260
REMARK  102  A    between atoms: _260  and  _477
REMARK  103  A    between atoms: _261  and  _263
REMARK  104  A    between atoms: _263  and  _264
REMARK  105  A    between atoms: _263  and  _266
REMARK  106  A    between atoms: _266  and  _267
REMARK  107  A    between atoms: _270  and  _272
REMARK  108  A    between atoms: _272  and  _273
REMARK  109  A    between atoms: _272  and  _275
REMARK  110  A    between atoms: _275  and  _276
REMARK  111  A    between atoms: _281  and  _282
REMARK  112  A    between atoms: _284  and  _286
REMARK  113  A    between atoms: _286  and  _287
REMARK  114  A    between atoms: _286  and  _289
REMARK  115  A    between atoms: _289  and  _290
REMARK  116  A    between atoms: _295  and  _296
REMARK  117  A    between atoms: _298  and  _300
REMARK  118  A    between atoms: _300  and  _301
REMARK  119  A    between atoms: _300  and  _303
REMARK  120  A    between atoms: _303  and  _304
REMARK  121  A    between atoms: _304  and  _305
REMARK  122  A    between atoms: _308  and  _310
REMARK  123  A    between atoms: _310  and  _311
REMARK  124  A    between atoms: _310  and  _313
REMARK  125  A    between atoms: _313  and  _314
REMARK  126  A    between atoms: _319  and  _320
REMARK  127  A    between atoms: _322  and  _324
REMARK  128  A    between atoms: _324  and  _325
REMARK  129  A    between atoms: _324  and  _327
REMARK  130  A    between atoms: _327  and  _328
REMARK  131  A    between atoms: _333  and  _335
REMARK  132  A    between atoms: _335  and  _336
REMARK  133  A    between atoms: _335  and  _338
REMARK  134  A    between atoms: _338  and  _339
REMARK  135  A    between atoms: _342  and  _344
REMARK  136  A    between atoms: _344  and  _345
REMARK  137  A    between atoms: _344  and  _347
REMARK  138  A    between atoms: _347  and  _348
REMARK  139  A    between atoms: _353  and  _355
REMARK  140  A    between atoms: _355  and  _356
REMARK  141  A    between atoms: _355  and  _358
REMARK  142  A    between atoms: _358  and  _359
REMARK  143  A    between atoms: _369  and  _371
REMARK  144  A    between atoms: _371  and  _372
REMARK  145  A    between atoms: _371  and  _374
REMARK  146  A    between atoms: _374  and  _375
REMARK  147  A    between atoms: _381  and  _383
REMARK  148  A    between atoms: _383  and  _384
REMARK  149  A    between atoms: _383  and  _386
REMARK  150  A    between atoms: _386  and  _387
REMARK  151  A    between atoms: _390  and  _392
REMARK  152  A    between atoms: _392  and  _393
REMARK  153  A    between atoms: _392  and  _395
REMARK  154  A    between atoms: _395  and  _396
REMARK  155  A    between atoms: _399  and  _401
REMARK  156  A    between atoms: _401  and  _402
REMARK  157  A    between atoms: _401  and  _404
REMARK  158  A    between atoms: _404  and  _405
REMARK  159  A    between atoms: _405  and  _406
REMARK  160  A    between atoms: _406  and  _407
REMARK  161  A    between atoms: _416  and  _418
REMARK  162  A    between atoms: _418  and  _419
REMARK  163  A    between atoms: _418  and  _421
REMARK  164  A    between atoms: _421  and  _422
REMARK  165  A    between atoms: _427  and  _429
REMARK  166  A    between atoms: _429  and  _430
REMARK  167  A    between atoms: _429  and  _432
REMARK  168  A    between atoms: _432  and  _433
REMARK  169  A    between atoms: _433  and  _434
REMARK  170  A    between atoms: _434  and  _435
REMARK  171  A    between atoms: _444  and  _446
REMARK  172  A    between atoms: _446  and  _447
REMARK  173  A    between atoms: _450  and  _452
REMARK  174  A    between atoms: _452  and  _453
REMARK  175  A    between atoms: _455  and  _457
REMARK  176  A    between atoms: _457  and  _458
REMARK  177  A    between atoms: _457  and  _460
REMARK  178  A    between atoms: _460  and  _461
REMARK  179  A    between atoms: _471  and  _473
REMARK  180  A    between atoms: _473  and  _474
REMARK  181  A    between atoms: _473  and  _476
REMARK  182  A    between atoms: _476  and  _477
REMARK  183  A    between atoms: _478  and  _480
REMARK  184  A    between atoms: _480  and  _481
REMARK  185  A    between atoms: _484  and  _486
REMARK  186  A    between atoms: _486  and  _487
REMARK  187  A    between atoms: _486  and  _489
REMARK  188  A    between atoms: _489  and  _490
REMARK  189  A    between atoms: _493  and  _495
REMARK  190  A    between atoms: _495  and  _496
REMARK  191  A    between atoms: _495  and  _498
REMARK  192  A    between atoms: _498  and  _499
REMARK  193  A    between atoms: _504  and  _505
REMARK  194  A    between atoms: _507  and  _509
REMARK  195  A    between atoms: _509  and  _510
REMARK  196  A    between atoms: _509  and  _512
REMARK  197  A    between atoms: _512  and  _513
REMARK  198  A    between atoms: _515  and  _517
REMARK  199  A    between atoms: _517  and  _518
REMARK  200  A    between atoms: _517  and  _520
REMARK  201  A    between atoms: _520  and  _521
REMARK  202  A    between atoms: _527  and  _529
REMARK  203  A    between atoms: _529  and  _530
REMARK  204  A    between atoms: _529  and  _532
REMARK  205  A    between atoms: _532  and  _533
REMARK  206  A    between atoms: _536  and  _538
REMARK  207  A    between atoms: _538  and  _539
REMARK  208  A    between atoms: _538  and  _541
REMARK  209  A    between atoms: _541  and  _542
REMARK  210  A    between atoms: _544  and  _546
REMARK  211  A    between atoms: _546  and  _547
REMARK  212  A    between atoms: _546  and  _549
REMARK  213  A    between atoms: _549  and  _550
REMARK  214  A    between atoms: _555  and  _557
REMARK  215  A    between atoms: _557  and  _558
REMARK  216  A    between atoms: _557  and  _560
REMARK  217  A    between atoms: _560  and  _561
REMARK  218  A    between atoms: _566  and  _568
REMARK  219  A    between atoms: _568  and  _569
REMARK  220  A    between atoms: _568  and  _571
REMARK  221  A    between atoms: _571  and  _572
REMARK  222  A    between atoms: _575  and  _577
REMARK  223  A    between atoms: _577  and  _578
REMARK  224  A    between atoms: _581  and  _583
REMARK  225  A    between atoms: _583  and  _584
REMARK  226  A    between atoms: _583  and  _586
REMARK  227  A    between atoms: _586  and  _587
REMARK  228  A    between atoms: _592  and  _593
REMARK  229  A    between atoms: _595  and  _597
REMARK  230  A    between atoms: _597  and  _598
REMARK  231  A    between atoms: _597  and  _600
REMARK  232  A    between atoms: _600  and  _601
REMARK  233  A    between atoms: _606  and  _607
REMARK  234  A    between atoms: _609  and  _611
REMARK  235  A    between atoms: _611  and  _612
REMARK  236  A    between atoms: _611  and  _614
REMARK  237  A    between atoms: _617  and  _619
REMARK  238  A    between atoms: _619  and  _620
REMARK  239  A    between atoms: _619  and  _622
REMARK  240  A    between atoms: _622  and  _623
REMARK  241  A    between atoms: _628  and  _630
REMARK  242  A    between atoms: _630  and  _631
REMARK  243  A    between atoms: _634  and  _636
REMARK  244  A    between atoms: _636  and  _637
REMARK  245  A    between atoms: _636  and  _639
REMARK  246  A    between atoms: _639  and  _640
REMARK  247  A    between atoms: _640  and  _641
REMARK  248  A    between atoms: _641  and  _642
REMARK  249  A    between atoms: _651  and  _653
REMARK  250  A    between atoms: _653  and  _654
REMARK  251  A    between atoms: _653  and  _656
REMARK  252  A    between atoms: _656  and  _657
REMARK  253  A    between atoms: _660  and  _662
REMARK  254  A    between atoms: _662  and  _663
REMARK  255  A    between atoms: _662  and  _665
REMARK  256  A    between atoms: _665  and  _666
REMARK  257  A    between atoms: _669  and  _671
REMARK  258  A    between atoms: _671  and  _672
REMARK  259  A    between atoms: _671  and  _674
REMARK  260  A    between atoms: _674  and  _675
REMARK                            x       y       z     vdW  Elec       q    Type
REMARK                         _______ _______ _______ _____ _____    ______ ____
ROOT
ATOM      1  O   HOH     1      11.279  13.617  16.691  0.00  0.00    +0.000 OA
ENDROOT
TORSDOF 0
REMARK  Name = ../refined-set-2016/1b32/1b32_pocket.pdb
REMARK  260 active torsions:
REMARK  status: ('A' for Active; 'I' for Inactive)
REMARK    1  A    between atoms: _1  and  _3
REMARK    2  A    between atoms: _3  and  _4
REMARK    3  A    between atoms: _3  and  _6
REMARK    4  A    between atoms: _6  and  _7
REMARK    5  A    between atoms: _12  and  _14
REMARK    6  A    between atoms: _14  and  _15
REMARK    7  A    between atoms: _14  and  _17
REMARK    8  A    between atoms: _17  and  _18
REMARK    9  A    between atoms: _20  and  _22
REMARK   10  A    between atoms: _22  and  _23
REMARK   11  A    between atoms: _22  and  _25
REMARK   12  A    between atoms: _25  and  _26
REMARK   13  A    between atoms: _26  and  _27
REMARK   14  A    between atoms: _32  and  _34
REMARK   15  A    between atoms: _34  and  _35
REMARK   16  A    between atoms: _34  and  _37
REMARK   17  A    between atoms: _37  and  _38
REMARK   18  A    between atoms: _41  and  _43
REMARK   19  A    between atoms: _43  and  _44
REMARK   20  A    between atoms: _43  and  _46
REMARK   21  A    between atoms: _46  and  _47
REMARK   22  A    between atoms: _47  and  _48
REMARK   23  A    between atoms: _51  and  _53
REMARK   24  A    between atoms: _53  and  _54
REMARK   25  A    between atoms: _56  and  _58
REMARK   26  A    between atoms: _58  and  _59
REMARK   27  A    between atoms: _58  and  _61
REMARK   28  A    between atoms: _65  and  _66
REMARK   29  A    between atoms: _71  and  _73
REMARK   30  A    between atoms: _73  and  _74
REMARK   31  A    between atoms: _73  and  _76
REMARK   32  A    between atoms: _76  and  _77
REMARK   33  A    between atoms: _77  and  _78
REMARK   34  A    between atoms: _81  and  _83
REMARK   35  A    between atoms: _83  and  _84
REMARK   36  A    between atoms: _83  and  _86
REMARK   37  A    between atoms: _86  and  _87
REMARK   38  A    between atoms: _89  and  _91
REMARK   39  A    between atoms: _91  and  _92
REMARK   40  A    between atoms: _91  and  _94
REMARK   41  A    between atoms: _94  and  _95
REMARK   42  A    between atoms: _100  and  _102
REMARK   43  A    between atoms: _102  and  _103
REMARK   44  A    between atoms: _102  and  _105
REMARK   45  A    between atoms: _105  and  _106
REMARK   46  A    between atoms: _106  and  _107
REMARK   47  A    between atoms: _107  and  _108
REMARK   48  A    between atoms: _118  and  _119
REMARK   49  A    between atoms: _124  and  _126
REMARK   50  A    between atoms: _126  and  _127
REMARK   51  A    between atoms: _126  and  _129
REMARK   52  A    between atoms: _129  and  _130
REMARK   53  A    between atoms: _135  and  _136
REMARK   54  A    between atoms: _138  and  _140
REMARK   55  A    between atoms: _140  and  _141
REMARK   56  A    between atoms: _140  and  _143
REMARK   57  A    between atoms: _143  and  _144
REMARK   58  A    between atoms: _149  and  _150
REMARK   59  A    between atoms: _152  and  _154
REMARK   60  A    between atoms: _154  and  _155
REMARK   61  A    between atoms: _154  and  _157
REMARK   62  A    between atoms: _160  and  _162
REMARK   63  A    between atoms: _162  and  _163
REMARK   64  A    between atoms: _162  and  _165
REMARK   65  A    between atoms: _165  and  _166
REMARK   66  A    between atoms: _172  and  _173
REMARK   67  A    between atoms: _178  and  _180
REMARK   68  A    between atoms: _180  and  _181
REMARK   69  A    between atoms: _180  and  _183
REMARK   70  A    between atoms: _183  and  _184
REMARK   71  A    between atoms: _186  and  _188
REMARK   72  A    between atoms: _188  and  _189
REMARK   73  A    between atoms: _188  and  _191
REMARK   74  A    between atoms: _191  and  _192
REMARK   75  A    between atoms: _197  and  _198
REMARK   76  A    between atoms: _200  and  _202
REMARK   77  A    between atoms: _202  and  _203
REMARK   78  A    between atoms: _202  and  _205
REMARK   79  A    between atoms: _205  and  _206
REMARK   80  A    between atoms: _211  and  _213
REMARK   81  A    between atoms: _213  and  _214
REMARK   82  A    between atoms: _213  and  _216
REMARK   83  A    between atoms: _216  and  _217
REMARK   84  A    between atoms: _222  and  _224
REMARK   85  A    between atoms: _224  and  _225
REMARK   86  A    between atoms: _224  and  _227
REMARK   87  A    between atoms: _227  and  _228
REMARK   88  A    between atoms: _228  and  _229
REMARK   89  A    between atoms: _231  and  _233
REMARK   90  A    between atoms: _233  and  _234
REMARK   91  A    between atoms: _233  and  _236
REMARK   92  A    between atoms: _236  and  _237
REMARK   93  A    between atoms: _242  and  _243
REMARK   94  A    between atoms: _245  and  _247
REMARK   95  A    between atoms: _247  and  _248
REMARK   96  A    between atoms: _247  and  _250
REMARK   97  A    between atoms: _250  and  _251
REMARK   98  A    between atoms: _254  and  _256
REMARK   99  A    between atoms: _256  and  _257
REMARK  100  A    between atoms: _256  and  _259
REMARK  101  A    between atoms: _259  and  _260
REMARK  102  A    between atoms: _260  and  _477
REMARK  103  A    between atoms: _261  and  _263
REMARK  104  A    between atoms: _263  and  _264
REMARK  105  A    between atoms: _263  and  _266
REMARK  106  A    between atoms: _266  and  _267
REMARK  107  A    between atoms: _270  and  _272
REMARK  108  A    between atoms: _272  and  _273
REMARK  109  A    between atoms: _272  and  _275
REMARK  110  A    between atoms: _275  and  _276
REMARK  111  A    between atoms: _281  and  _282
REMARK  112  A    between atoms: _284  and  _286
REMARK  113  A    between atoms: _286  and  _287
REMARK  114  A    between atoms: _286  and  _289
REMARK  115  A    between atoms: _289  and  _290
REMARK  116  A    between atoms: _295  and  _296
REMARK  117  A    between atoms: _298  and  _300
REMARK  118  A    between atoms: _300  and  _301
REMARK  119  A    between atoms: _300  and  _303
REMARK  120  A    between atoms: _303  and  _304
REMARK  121  A    between atoms: _304  and  _305
REMARK  122  A    between atoms: _308  and  _310
REMARK  123  A    between atoms: _310  and  _311
REMARK  124  A    between atoms: _310  and  _313
REMARK  125  A    between atoms: _313  and  _314
REMARK  126  A    between atoms: _319  and  _320
REMARK  127  A    between atoms: _322  and  _324
REMARK  128  A    between atoms: _324  and  _325
REMARK  129  A    between atoms: _324  and  _327
REMARK  130  A    between atoms: _327  and  _328
REMARK  131  A    between atoms: _333  and  _335
REMARK  132  A    between atoms: _335  and  _336
REMARK  133  A    between atoms: _335  and  _338
REMARK  134  A    between atoms: _338  and  _339
REMARK  135  A    between atoms: _342  and  _344
REMARK  136  A    between atoms: _344  and  _345
REMARK  137  A    between atoms: _344  and  _347
REMARK  138  A    between atoms: _347  and  _348
REMARK  139  A    between atoms: _353  and  _355
REMARK  140  A    between atoms: _355  and  _356
REMARK  141  A    between atoms: _355  and  _358
REMARK  142  A    between atoms: _358  and  _359
REMARK  143  A    between atoms: _369  and  _371
REMARK  144  A    between atoms: _371  and  _372
REMARK  145  A    between atoms: _371  and  _374
REMARK  146  A    between atoms: _374  and  _375
REMARK  147  A    between atoms: _381  and  _383
REMARK  148  A    between atoms: _383  and  _384
REMARK  149  A    between atoms: _383  and  _386
REMARK  150  A    between atoms: _386  and  _387
REMARK  151  A    between atoms: _390  and  _392
REMARK  152  A    between atoms: _392  and  _393
REMARK  153  A    between atoms: _392  and  _395
REMARK  154  A    between atoms: _395  and  _396
REMARK  155  A    between atoms: _399  and  _401
REMARK  156  A    between atoms: _401  and  _402
REMARK  157  A    between atoms: _401  and  _404
REMARK  158  A    between atoms: _404  and  _405
REMARK  159  A    between atoms: _405  and  _406
REMARK  160  A    between atoms: _406  and  _407
REMARK  161  A    between atoms: _416  and  _418
REMARK  162  A    between atoms: _418  and  _419
REMARK  163  A    between atoms: _418  and  _421
REMARK  164  A    between atoms: _421  and  _422
REMARK  165  A    between atoms: _427  and  _429
REMARK  166  A    between atoms: _429  and  _430
REMARK  167  A    between atoms: _429  and  _432
REMARK  168  A    between atoms: _432  and  _433
REMARK  169  A    between atoms: _433  and  _434
REMARK  170  A    between atoms: _434  and  _435
REMARK  171  A    between atoms: _444  and  _446
REMARK  172  A    between atoms: _446  and  _447
REMARK  173  A    between atoms: _450  and  _452
REMARK  174  A    between atoms: _452  and  _453
REMARK  175  A    between atoms: _455  and  _457
REMARK  176  A    between atoms: _457  and  _458
REMARK  177  A    between atoms: _457  and  _460
REMARK  178  A    between atoms: _460  and  _461
REMARK  179  A    between atoms: _471  and  _473
REMARK  180  A    between atoms: _473  and  _474
REMARK  181  A    between atoms: _473  and  _476
REMARK  182  A    between atoms: _476  and  _477
REMARK  183  A    between atoms: _478  and  _480
REMARK  184  A    between atoms: _480  and  _481
REMARK  185  A    between atoms: _484  and  _486
REMARK  186  A    between atoms: _486  and  _487
REMARK  187  A    between atoms: _486  and  _489
REMARK  188  A    between atoms: _489  and  _490
REMARK  189  A    between atoms: _493  and  _495
REMARK  190  A    between atoms: _495  and  _496
REMARK  191  A    between atoms: _495  and  _498
REMARK  192  A    between atoms: _498  and  _499
REMARK  193  A    between atoms: _504  and  _505
REMARK  194  A    between atoms: _507  and  _509
REMARK  195  A    between atoms: _509  and  _510
REMARK  196  A    between atoms: _509  and  _512
REMARK  197  A    between atoms: _512  and  _513
REMARK  198  A    between atoms: _515  and  _517
REMARK  199  A    between atoms: _517  and  _518
REMARK  200  A    between atoms: _517  and  _520
REMARK  201  A    between atoms: _520  and  _521
REMARK  202  A    between atoms: _527  and  _529
REMARK  203  A    between atoms: _529  and  _530
REMARK  204  A    between atoms: _529  and  _532
REMARK  205  A    between atoms: _532  and  _533
REMARK  206  A    between atoms: _536  and  _538
REMARK  207  A    between atoms: _538  and  _539
REMARK  208  A    between atoms: _538  and  _541
REMARK  209  A    between atoms: _541  and  _542
REMARK  210  A    between atoms: _544  and  _546
REMARK  211  A    between atoms: _546  and  _547
REMARK  212  A    between atoms: _546  and  _549
REMARK  213  A    between atoms: _549  and  _550
REMARK  214  A    between atoms: _555  and  _557
REMARK  215  A    between atoms: _557  and  _558
REMARK  216  A    between atoms: _557  and  _560
REMARK  217  A    between atoms: _560  and  _561
REMARK  218  A    between atoms: _566  and  _568
REMARK  219  A    between atoms: _568  and  _569
REMARK  220  A    between atoms: _568  and  _571
REMARK  221  A    between atoms: _571  and  _572
REMARK  222  A    between atoms: _575  and  _577
REMARK  223  A    between atoms: _577  and  _578
REMARK  224  A    between atoms: _581  and  _583
REMARK  225  A    between atoms: _583  and  _584
REMARK  226  A    between atoms: _583  and  _586
REMARK  227  A    between atoms: _586  and  _587
REMARK  228  A    between atoms: _592  and  _593
REMARK  229  A    between atoms: _595  and  _597
REMARK  230  A    between atoms: _597  and  _598
REMARK  231  A    between atoms: _597  and  _600
REMARK  232  A    between atoms: _600  and  _601
REMARK  233  A    between atoms: _606  and  _607
REMARK  234  A    between atoms: _609  and  _611
REMARK  235  A    between atoms: _611  and  _612
REMARK  236  A    between atoms: _611  and  _614
REMARK  237  A    between atoms: _617  and  _619
REMARK  238  A    between atoms: _619  and  _620
REMARK  239  A    between atoms: _619  and  _622
REMARK  240  A    between atoms: _622  and  _623
REMARK  241  A    between atoms: _628  and  _630
REMARK  242  A    between atoms: _630  and  _631
REMARK  243  A    between atoms: _634  and  _636
REMARK  244  A    between atoms: _636  and  _637
REMARK  245  A    between atoms: _636  and  _639
REMARK  246  A    between atoms: _639  and  _640
REMARK  247  A    between atoms: _640  and  _641
REMARK  248  A    between atoms: _641  and  _642
REMARK  249  A    between atoms: _651  and  _653
REMARK  250  A    between atoms: _653  and  _654
REMARK  251  A    between atoms: _653  and  _656
REMARK  252  A    between atoms: _656  and  _657
REMARK  253  A    between atoms: _660  and  _662
REMARK  254  A    between atoms: _662  and  _663
REMARK  255  A    between atoms: _662  and  _665
REMARK  256  A    between atoms: _665  and  _666
REMARK  257  A    between atoms: _669  and  _671
REMARK  258  A    between atoms: _671  and  _672
REMARK  259  A    between atoms: _671  and  _674
REMARK  260  A    between atoms: _674  and  _675
REMARK                            x       y       z     vdW  Elec       q    Type
REMARK                         _______ _______ _______ _____ _____    ______ ____
ROOT
ATOM      1  O   HOH     1       3.335  16.863   8.102  0.00  0.00    +0.000 OA
ENDROOT
TORSDOF 0
REMARK  Name = ../refined-set-2016/1b32/1b32_pocket.pdb
REMARK  260 active torsions:
REMARK  status: ('A' for Active; 'I' for Inactive)
REMARK    1  A    between atoms: _1  and  _3
REMARK    2  A    between atoms: _3  and  _4
REMARK    3  A    between atoms: _3  and  _6
REMARK    4  A    between atoms: _6  and  _7
REMARK    5  A    between atoms: _12  and  _14
REMARK    6  A    between atoms: _14  and  _15
REMARK    7  A    between atoms: _14  and  _17
REMARK    8  A    between atoms: _17  and  _18
REMARK    9  A    between atoms: _20  and  _22
REMARK   10  A    between atoms: _22  and  _23
REMARK   11  A    between atoms: _22  and  _25
REMARK   12  A    between atoms: _25  and  _26
REMARK   13  A    between atoms: _26  and  _27
REMARK   14  A    between atoms: _32  and  _34
REMARK   15  A    between atoms: _34  and  _35
REMARK   16  A    between atoms: _34  and  _37
REMARK   17  A    between atoms: _37  and  _38
REMARK   18  A    between atoms: _41  and  _43
REMARK   19  A    between atoms: _43  and  _44
REMARK   20  A    between atoms: _43  and  _46
REMARK   21  A    between atoms: _46  and  _47
REMARK   22  A    between atoms: _47  and  _48
REMARK   23  A    between atoms: _51  and  _53
REMARK   24  A    between atoms: _53  and  _54
REMARK   25  A    between atoms: _56  and  _58
REMARK   26  A    between atoms: _58  and  _59
REMARK   27  A    between atoms: _58  and  _61
REMARK   28  A    between atoms: _65  and  _66
REMARK   29  A    between atoms: _71  and  _73
REMARK   30  A    between atoms: _73  and  _74
REMARK   31  A    between atoms: _73  and  _76
REMARK   32  A    between atoms: _76  and  _77
REMARK   33  A    between atoms: _77  and  _78
REMARK   34  A    between atoms: _81  and  _83
REMARK   35  A    between atoms: _83  and  _84
REMARK   36  A    between atoms: _83  and  _86
REMARK   37  A    between atoms: _86  and  _87
REMARK   38  A    between atoms: _89  and  _91
REMARK   39  A    between atoms: _91  and  _92
REMARK   40  A    between atoms: _91  and  _94
REMARK   41  A    between atoms: _94  and  _95
REMARK   42  A    between atoms: _100  and  _102
REMARK   43  A    between atoms: _102  and  _103
REMARK   44  A    between atoms: _102  and  _105
REMARK   45  A    between atoms: _105  and  _106
REMARK   46  A    between atoms: _106  and  _107
REMARK   47  A    between atoms: _107  and  _108
REMARK   48  A    between atoms: _118  and  _119
REMARK   49  A    between atoms: _124  and  _126
REMARK   50  A    between atoms: _126  and  _127
REMARK   51  A    between atoms: _126  and  _129
REMARK   52  A    between atoms: _129  and  _130
REMARK   53  A    between atoms: _135  and  _136
REMARK   54  A    between atoms: _138  and  _140
REMARK   55  A    between atoms: _140  and  _141
REMARK   56  A    between atoms: _140  and  _143
REMARK   57  A    between atoms: _143  and  _144
REMARK   58  A    between atoms: _149  and  _150
REMARK   59  A    between atoms: _152  and  _154
REMARK   60  A    between atoms: _154  and  _155
REMARK   61  A    between atoms: _154  and  _157
REMARK   62  A    between atoms: _160  and  _162
REMARK   63  A    between atoms: _162  and  _163
REMARK   64  A    between atoms: _162  and  _165
REMARK   65  A    between atoms: _165  and  _166
REMARK   66  A    between atoms: _172  and  _173
REMARK   67  A    between atoms: _178  and  _180
REMARK   68  A    between atoms: _180  and  _181
REMARK   69  A    between atoms: _180  and  _183
REMARK   70  A    between atoms: _183  and  _184
REMARK   71  A    between atoms: _186  and  _188
REMARK   72  A    between atoms: _188  and  _189
REMARK   73  A    between atoms: _188  and  _191
REMARK   74  A    between atoms: _191  and  _192
REMARK   75  A    between atoms: _197  and  _198
REMARK   76  A    between atoms: _200  and  _202
REMARK   77  A    between atoms: _202  and  _203
REMARK   78  A    between atoms: _202  and  _205
REMARK   79  A    between atoms: _205  and  _206
REMARK   80  A    between atoms: _211  and  _213
REMARK   81  A    between atoms: _213  and  _214
REMARK   82  A    between atoms: _213  and  _216
REMARK   83  A    between atoms: _216  and  _217
REMARK   84  A    between atoms: _222  and  _224
REMARK   85  A    between atoms: _224  and  _225
REMARK   86  A    between atoms: _224  and  _227
REMARK   87  A    between atoms: _227  and  _228
REMARK   88  A    between atoms: _228  and  _229
REMARK   89  A    between atoms: _231  and  _233
REMARK   90  A    between atoms: _233  and  _234
REMARK   91  A    between atoms: _233  and  _236
REMARK   92  A    between atoms: _236  and  _237
REMARK   93  A    between atoms: _242  and  _243
REMARK   94  A    between atoms: _245  and  _247
REMARK   95  A    between atoms: _247  and  _248
REMARK   96  A    between atoms: _247  and  _250
REMARK   97  A    between atoms: _250  and  _251
REMARK   98  A    between atoms: _254  and  _256
REMARK   99  A    between atoms: _256  and  _257
REMARK  100  A    between atoms: _256  and  _259
REMARK  101  A    between atoms: _259  and  _260
REMARK  102  A    between atoms: _260  and  _477
REMARK  103  A    between atoms: _261  and  _263
REMARK  104  A    between atoms: _263  and  _264
REMARK  105  A    between atoms: _263  and  _266
REMARK  106  A    between atoms: _266  and  _267
REMARK  107  A    between atoms: _270  and  _272
REMARK  108  A    between atoms: _272  and  _273
REMARK  109  A    between atoms: _272  and  _275
REMARK  110  A    between atoms: _275  and  _276
REMARK  111  A    between atoms: _281  and  _282
REMARK  112  A    between atoms: _284  and  _286
REMARK  113  A    between atoms: _286  and  _287
REMARK  114  A    between atoms: _286  and  _289
REMARK  115  A    between atoms: _289  and  _290
REMARK  116  A    between atoms: _295  and  _296
REMARK  117  A    between atoms: _298  and  _300
REMARK  118  A    between atoms: _300  and  _301
REMARK  119  A    between atoms: _300  and  _303
REMARK  120  A    between atoms: _303  and  _304
REMARK  121  A    between atoms: _304  and  _305
REMARK  122  A    between atoms: _308  and  _310
REMARK  123  A    between atoms: _310  and  _311
REMARK  124  A    between atoms: _310  and  _313
REMARK  125  A    between atoms: _313  and  _314
REMARK  126  A    between atoms: _319  and  _320
REMARK  127  A    between atoms: _322  and  _324
REMARK  128  A    between atoms: _324  and  _325
REMARK  129  A    between atoms: _324  and  _327
REMARK  130  A    between atoms: _327  and  _328
REMARK  131  A    between atoms: _333  and  _335
REMARK  132  A    between atoms: _335  and  _336
REMARK  133  A    between atoms: _335  and  _338
REMARK  134  A    between atoms: _338  and  _339
REMARK  135  A    between atoms: _342  and  _344
REMARK  136  A    between atoms: _344  and  _345
REMARK  137  A    between atoms: _344  and  _347
REMARK  138  A    between atoms: _347  and  _348
REMARK  139  A    between atoms: _353  and  _355
REMARK  140  A    between atoms: _355  and  _356
REMARK  141  A    between atoms: _355  and  _358
REMARK  142  A    between atoms: _358  and  _359
REMARK  143  A    between atoms: _369  and  _371
REMARK  144  A    between atoms: _371  and  _372
REMARK  145  A    between atoms: _371  and  _374
REMARK  146  A    between atoms: _374  and  _375
REMARK  147  A    between atoms: _381  and  _383
REMARK  148  A    between atoms: _383  and  _384
REMARK  149  A    between atoms: _383  and  _386
REMARK  150  A    between atoms: _386  and  _387
REMARK  151  A    between atoms: _390  and  _392
REMARK  152  A    between atoms: _392  and  _393
REMARK  153  A    between atoms: _392  and  _395
REMARK  154  A    between atoms: _395  and  _396
REMARK  155  A    between atoms: _399  and  _401
REMARK  156  A    between atoms: _401  and  _402
REMARK  157  A    between atoms: _401  and  _404
REMARK  158  A    between atoms: _404  and  _405
REMARK  159  A    between atoms: _405  and  _406
REMARK  160  A    between atoms: _406  and  _407
REMARK  161  A    between atoms: _416  and  _418
REMARK  162  A    between atoms: _418  and  _419
REMARK  163  A    between atoms: _418  and  _421
REMARK  164  A    between atoms: _421  and  _422
REMARK  165  A    between atoms: _427  and  _429
REMARK  166  A    between atoms: _429  and  _430
REMARK  167  A    between atoms: _429  and  _432
REMARK  168  A    between atoms: _432  and  _433
REMARK  169  A    between atoms: _433  and  _434
REMARK  170  A    between atoms: _434  and  _435
REMARK  171  A    between atoms: _444  and  _446
REMARK  172  A    between atoms: _446  and  _447
REMARK  173  A    between atoms: _450  and  _452
REMARK  174  A    between atoms: _452  and  _453
REMARK  175  A    between atoms: _455  and  _457
REMARK  176  A    between atoms: _457  and  _458
REMARK  177  A    between atoms: _457  and  _460
REMARK  178  A    between atoms: _460  and  _461
REMARK  179  A    between atoms: _471  and  _473
REMARK  180  A    between atoms: _473  and  _474
REMARK  181  A    between atoms: _473  and  _476
REMARK  182  A    between atoms: _476  and  _477
REMARK  183  A    between atoms: _478  and  _480
REMARK  184  A    between atoms: _480  and  _481
REMARK  185  A    between atoms: _484  and  _486
REMARK  186  A    between atoms: _486  and  _487
REMARK  187  A    between atoms: _486  and  _489
REMARK  188  A    between atoms: _489  and  _490
REMARK  189  A    between atoms: _493  and  _495
REMARK  190  A    between atoms: _495  and  _496
REMARK  191  A    between atoms: _495  and  _498
REMARK  192  A    between atoms: _498  and  _499
REMARK  193  A    between atoms: _504  and  _505
REMARK  194  A    between atoms: _507  and  _509
REMARK  195  A    between atoms: _509  and  _510
REMARK  196  A    between atoms: _509  and  _512
REMARK  197  A    between atoms: _512  and  _513
REMARK  198  A    between atoms: _515  and  _517
REMARK  199  A    between atoms: _517  and  _518
REMARK  200  A    between atoms: _517  and  _520
REMARK  201  A    between atoms: _520  and  _521
REMARK  202  A    between atoms: _527  and  _529
REMARK  203  A    between atoms: _529  and  _530
REMARK  204  A    between atoms: _529  and  _532
REMARK  205  A    between atoms: _532  and  _533
REMARK  206  A    between atoms: _536  and  _538
REMARK  207  A    between atoms: _538  and  _539
REMARK  208  A    between atoms: _538  and  _541
REMARK  209  A    between atoms: _541  and  _542
REMARK  210  A    between atoms: _544  and  _546
REMARK  211  A    between atoms: _546  and  _547
REMARK  212  A    between atoms: _546  and  _549
REMARK  213  A    between atoms: _549  and  _550
REMARK  214  A    between atoms: _555  and  _557
REMARK  215  A    between atoms: _557  and  _558
REMARK  216  A    between atoms: _557  and  _560
REMARK  217  A    between atoms: _560  and  _561
REMARK  218  A    between atoms: _566  and  _568
REMARK  219  A    between atoms: _568  and  _569
REMARK  220  A    between atoms: _568  and  _571
REMARK  221  A    between atoms: _571  and  _572
REMARK  222  A    between atoms: _575  and  _577
REMARK  223  A    between atoms: _577  and  _578
REMARK  224  A    between atoms: _581  and  _583
REMARK  225  A    between atoms: _583  and  _584
REMARK  226  A    between atoms: _583  and  _586
REMARK  227  A    between atoms: _586  and  _587
REMARK  228  A    between atoms: _592  and  _593
REMARK  229  A    between atoms: _595  and  _597
REMARK  230  A    between atoms: _597  and  _598
REMARK  231  A    between atoms: _597  and  _600
REMARK  232  A    between atoms: _600  and  _601
REMARK  233  A    between atoms: _606  and  _607
REMARK  234  A    between atoms: _609  and  _611
REMARK  235  A    between atoms: _611  and  _612
REMARK  236  A    between atoms: _611  and  _614
REMARK  237  A    between atoms: _617  and  _619
REMARK  238  A    between atoms: _619  and  _620
REMARK  239  A    between atoms: _619  and  _622
REMARK  240  A    between atoms: _622  and  _623
REMARK  241  A    between atoms: _628  and  _630
REMARK  242  A    between atoms: _630  and  _631
REMARK  243  A    between atoms: _634  and  _636
REMARK  244  A    between atoms: _636  and  _637
REMARK  245  A    between atoms: _636  and  _639
REMARK  246  A    between atoms: _639  and  _640
REMARK  247  A    between atoms: _640  and  _641
REMARK  248  A    between atoms: _641  and  _642
REMARK  249  A    between atoms: _651  and  _653
REMARK  250  A    between atoms: _653  and  _654
REMARK  251  A    between atoms: _653  and  _656
REMARK  252  A    between atoms: _656  and  _657
REMARK  253  A    between atoms: _660  and  _662
REMARK  254  A    between atoms: _662  and  _663
REMARK  255  A    between atoms: _662  and  _665
REMARK  256  A    between atoms: _665  and  _666
REMARK  257  A    between atoms: _669  and  _671
REMARK  258  A    between atoms: _671  and  _672
REMARK  259  A    between atoms: _671  and  _674
REMARK  260  A    between atoms: _674  and  _675
REMARK                            x       y       z     vdW  Elec       q    Type
REMARK                         _______ _______ _______ _____ _____    ______ ____
ROOT
ATOM      1  O   HOH     1      -4.482  27.460  13.772  0.00  0.00    +0.000 OA
ENDROOT
TORSDOF 0
REMARK  Name = ../refined-set-2016/1b32/1b32_pocket.pdb
REMARK  260 active torsions:
REMARK  status: ('A' for Active; 'I' for Inactive)
REMARK    1  A    between atoms: _1  and  _3
REMARK    2  A    between atoms: _3  and  _4
REMARK    3  A    between atoms: _3  and  _6
REMARK    4  A    between atoms: _6  and  _7
REMARK    5  A    between atoms: _12  and  _14
REMARK    6  A    between atoms: _14  and  _15
REMARK    7  A    between atoms: _14  and  _17
REMARK    8  A    between atoms: _17  and  _18
REMARK    9  A    between atoms: _20  and  _22
REMARK   10  A    between atoms: _22  and  _23
REMARK   11  A    between atoms: _22  and  _25
REMARK   12  A    between atoms: _25  and  _26
REMARK   13  A    between atoms: _26  and  _27
REMARK   14  A    between atoms: _32  and  _34
REMARK   15  A    between atoms: _34  and  _35
REMARK   16  A    between atoms: _34  and  _37
REMARK   17  A    between atoms: _37  and  _38
REMARK   18  A    between atoms: _41  and  _43
REMARK   19  A    between atoms: _43  and  _44
REMARK   20  A    between atoms: _43  and  _46
REMARK   21  A    between atoms: _46  and  _47
REMARK   22  A    between atoms: _47  and  _48
REMARK   23  A    between atoms: _51  and  _53
REMARK   24  A    between atoms: _53  and  _54
REMARK   25  A    between atoms: _56  and  _58
REMARK   26  A    between atoms: _58  and  _59
REMARK   27  A    between atoms: _58  and  _61
REMARK   28  A    between atoms: _65  and  _66
REMARK   29  A    between atoms: _71  and  _73
REMARK   30  A    between atoms: _73  and  _74
REMARK   31  A    between atoms: _73  and  _76
REMARK   32  A    between atoms: _76  and  _77
REMARK   33  A    between atoms: _77  and  _78
REMARK   34  A    between atoms: _81  and  _83
REMARK   35  A    between atoms: _83  and  _84
REMARK   36  A    between atoms: _83  and  _86
REMARK   37  A    between atoms: _86  and  _87
REMARK   38  A    between atoms: _89  and  _91
REMARK   39  A    between atoms: _91  and  _92
REMARK   40  A    between atoms: _91  and  _94
REMARK   41  A    between atoms: _94  and  _95
REMARK   42  A    between atoms: _100  and  _102
REMARK   43  A    between atoms: _102  and  _103
REMARK   44  A    between atoms: _102  and  _105
REMARK   45  A    between atoms: _105  and  _106
REMARK   46  A    between atoms: _106  and  _107
REMARK   47  A    between atoms: _107  and  _108
REMARK   48  A    between atoms: _118  and  _119
REMARK   49  A    between atoms: _124  and  _126
REMARK   50  A    between atoms: _126  and  _127
REMARK   51  A    between atoms: _126  and  _129
REMARK   52  A    between atoms: _129  and  _130
REMARK   53  A    between atoms: _135  and  _136
REMARK   54  A    between atoms: _138  and  _140
REMARK   55  A    between atoms: _140  and  _141
REMARK   56  A    between atoms: _140  and  _143
REMARK   57  A    between atoms: _143  and  _144
REMARK   58  A    between atoms: _149  and  _150
REMARK   59  A    between atoms: _152  and  _154
REMARK   60  A    between atoms: _154  and  _155
REMARK   61  A    between atoms: _154  and  _157
REMARK   62  A    between atoms: _160  and  _162
REMARK   63  A    between atoms: _162  and  _163
REMARK   64  A    between atoms: _162  and  _165
REMARK   65  A    between atoms: _165  and  _166
REMARK   66  A    between atoms: _172  and  _173
REMARK   67  A    between atoms: _178  and  _180
REMARK   68  A    between atoms: _180  and  _181
REMARK   69  A    between atoms: _180  and  _183
REMARK   70  A    between atoms: _183  and  _184
REMARK   71  A    between atoms: _186  and  _188
REMARK   72  A    between atoms: _188  and  _189
REMARK   73  A    between atoms: _188  and  _191
REMARK   74  A    between atoms: _191  and  _192
REMARK   75  A    between atoms: _197  and  _198
REMARK   76  A    between atoms: _200  and  _202
REMARK   77  A    between atoms: _202  and  _203
REMARK   78  A    between atoms: _202  and  _205
REMARK   79  A    between atoms: _205  and  _206
REMARK   80  A    between atoms: _211  and  _213
REMARK   81  A    between atoms: _213  and  _214
REMARK   82  A    between atoms: _213  and  _216
REMARK   83  A    between atoms: _216  and  _217
REMARK   84  A    between atoms: _222  and  _224
REMARK   85  A    between atoms: _224  and  _225
REMARK   86  A    between atoms: _224  and  _227
REMARK   87  A    between atoms: _227  and  _228
REMARK   88  A    between atoms: _228  and  _229
REMARK   89  A    between atoms: _231  and  _233
REMARK   90  A    between atoms: _233  and  _234
REMARK   91  A    between atoms: _233  and  _236
REMARK   92  A    between atoms: _236  and  _237
REMARK   93  A    between atoms: _242  and  _243
REMARK   94  A    between atoms: _245  and  _247
REMARK   95  A    between atoms: _247  and  _248
REMARK   96  A    between atoms: _247  and  _250
REMARK   97  A    between atoms: _250  and  _251
REMARK   98  A    between atoms: _254  and  _256
REMARK   99  A    between atoms: _256  and  _257
REMARK  100  A    between atoms: _256  and  _259
REMARK  101  A    between atoms: _259  and  _260
REMARK  102  A    between atoms: _260  and  _477
REMARK  103  A    between atoms: _261  and  _263
REMARK  104  A    between atoms: _263  and  _264
REMARK  105  A    between atoms: _263  and  _266
REMARK  106  A    between atoms: _266  and  _267
REMARK  107  A    between atoms: _270  and  _272
REMARK  108  A    between atoms: _272  and  _273
REMARK  109  A    between atoms: _272  and  _275
REMARK  110  A    between atoms: _275  and  _276
REMARK  111  A    between atoms: _281  and  _282
REMARK  112  A    between atoms: _284  and  _286
REMARK  113  A    between atoms: _286  and  _287
REMARK  114  A    between atoms: _286  and  _289
REMARK  115  A    between atoms: _289  and  _290
REMARK  116  A    between atoms: _295  and  _296
REMARK  117  A    between atoms: _298  and  _300
REMARK  118  A    between atoms: _300  and  _301
REMARK  119  A    between atoms: _300  and  _303
REMARK  120  A    between atoms: _303  and  _304
REMARK  121  A    between atoms: _304  and  _305
REMARK  122  A    between atoms: _308  and  _310
REMARK  123  A    between atoms: _310  and  _311
REMARK  124  A    between atoms: _310  and  _313
REMARK  125  A    between atoms: _313  and  _314
REMARK  126  A    between atoms: _319  and  _320
REMARK  127  A    between atoms: _322  and  _324
REMARK  128  A    between atoms: _324  and  _325
REMARK  129  A    between atoms: _324  and  _327
REMARK  130  A    between atoms: _327  and  _328
REMARK  131  A    between atoms: _333  and  _335
REMARK  132  A    between atoms: _335  and  _336
REMARK  133  A    between atoms: _335  and  _338
REMARK  134  A    between atoms: _338  and  _339
REMARK  135  A    between atoms: _342  and  _344
REMARK  136  A    between atoms: _344  and  _345
REMARK  137  A    between atoms: _344  and  _347
REMARK  138  A    between atoms: _347  and  _348
REMARK  139  A    between atoms: _353  and  _355
REMARK  140  A    between atoms: _355  and  _356
REMARK  141  A    between atoms: _355  and  _358
REMARK  142  A    between atoms: _358  and  _359
REMARK  143  A    between atoms: _369  and  _371
REMARK  144  A    between atoms: _371  and  _372
REMARK  145  A    between atoms: _371  and  _374
REMARK  146  A    between atoms: _374  and  _375
REMARK  147  A    between atoms: _381  and  _383
REMARK  148  A    between atoms: _383  and  _384
REMARK  149  A    between atoms: _383  and  _386
REMARK  150  A    between atoms: _386  and  _387
REMARK  151  A    between atoms: _390  and  _392
REMARK  152  A    between atoms: _392  and  _393
REMARK  153  A    between atoms: _392  and  _395
REMARK  154  A    between atoms: _395  and  _396
REMARK  155  A    between atoms: _399  and  _401
REMARK  156  A    between atoms: _401  and  _402
REMARK  157  A    between atoms: _401  and  _404
REMARK  158  A    between atoms: _404  and  _405
REMARK  159  A    between atoms: _405  and  _406
REMARK  160  A    between atoms: _406  and  _407
REMARK  161  A    between atoms: _416  and  _418
REMARK  162  A    between atoms: _418  and  _419
REMARK  163  A    between atoms: _418  and  _421
REMARK  164  A    between atoms: _421  and  _422
REMARK  165  A    between atoms: _427  and  _429
REMARK  166  A    between atoms: _429  and  _430
REMARK  167  A    between atoms: _429  and  _432
REMARK  168  A    between atoms: _432  and  _433
REMARK  169  A    between atoms: _433  and  _434
REMARK  170  A    between atoms: _434  and  _435
REMARK  171  A    between atoms: _444  and  _446
REMARK  172  A    between atoms: _446  and  _447
REMARK  173  A    between atoms: _450  and  _452
REMARK  174  A    between atoms: _452  and  _453
REMARK  175  A    between atoms: _455  and  _457
REMARK  176  A    between atoms: _457  and  _458
REMARK  177  A    between atoms: _457  and  _460
REMARK  178  A    between atoms: _460  and  _461
REMARK  179  A    between atoms: _471  and  _473
REMARK  180  A    between atoms: _473  and  _474
REMARK  181  A    between atoms: _473  and  _476
REMARK  182  A    between atoms: _476  and  _477
REMARK  183  A    between atoms: _478  and  _480
REMARK  184  A    between atoms: _480  and  _481
REMARK  185  A    between atoms: _484  and  _486
REMARK  186  A    between atoms: _486  and  _487
REMARK  187  A    between atoms: _486  and  _489
REMARK  188  A    between atoms: _489  and  _490
REMARK  189  A    between atoms: _493  and  _495
REMARK  190  A    between atoms: _495  and  _496
REMARK  191  A    between atoms: _495  and  _498
REMARK  192  A    between atoms: _498  and  _499
REMARK  193  A    between atoms: _504  and  _505
REMARK  194  A    between atoms: _507  and  _509
REMARK  195  A    between atoms: _509  and  _510
REMARK  196  A    between atoms: _509  and  _512
REMARK  197  A    between atoms: _512  and  _513
REMARK  198  A    between atoms: _515  and  _517
REMARK  199  A    between atoms: _517  and  _518
REMARK  200  A    between atoms: _517  and  _520
REMARK  201  A    between atoms: _520  and  _521
REMARK  202  A    between atoms: _527  and  _529
REMARK  203  A    between atoms: _529  and  _530
REMARK  204  A    between atoms: _529  and  _532
REMARK  205  A    between atoms: _532  and  _533
REMARK  206  A    between atoms: _536  and  _538
REMARK  207  A    between atoms: _538  and  _539
REMARK  208  A    between atoms: _538  and  _541
REMARK  209  A    between atoms: _541  and  _542
REMARK  210  A    between atoms: _544  and  _546
REMARK  211  A    between atoms: _546  and  _547
REMARK  212  A    between atoms: _546  and  _549
REMARK  213  A    between atoms: _549  and  _550
REMARK  214  A    between atoms: _555  and  _557
REMARK  215  A    between atoms: _557  and  _558
REMARK  216  A    between atoms: _557  and  _560
REMARK  217  A    between atoms: _560  and  _561
REMARK  218  A    between atoms: _566  and  _568
REMARK  219  A    between atoms: _568  and  _569
REMARK  220  A    between atoms: _568  and  _571
REMARK  221  A    between atoms: _571  and  _572
REMARK  222  A    between atoms: _575  and  _577
REMARK  223  A    between atoms: _577  and  _578
REMARK  224  A    between atoms: _581  and  _583
REMARK  225  A    between atoms: _583  and  _584
REMARK  226  A    between atoms: _583  and  _586
REMARK  227  A    between atoms: _586  and  _587
REMARK  228  A    between atoms: _592  and  _593
REMARK  229  A    between atoms: _595  and  _597
REMARK  230  A    between atoms: _597  and  _598
REMARK  231  A    between atoms: _597  and  _600
REMARK  232  A    between atoms: _600  and  _601
REMARK  233  A    between atoms: _606  and  _607
REMARK  234  A    between atoms: _609  and  _611
REMARK  235  A    between atoms: _611  and  _612
REMARK  236  A    between atoms: _611  and  _614
REMARK  237  A    between atoms: _617  and  _619
REMARK  238  A    between atoms: _619  and  _620
REMARK  239  A    between atoms: _619  and  _622
REMARK  240  A    between atoms: _622  and  _623
REMARK  241  A    between atoms: _628  and  _630
REMARK  242  A    between atoms: _630  and  _631
REMARK  243  A    between atoms: _634  and  _636
REMARK  244  A    between atoms: _636  and  _637
REMARK  245  A    between atoms: _636  and  _639
REMARK  246  A    between atoms: _639  and  _640
REMARK  247  A    between atoms: _640  and  _641
REMARK  248  A    between atoms: _641  and  _642
REMARK  249  A    between atoms: _651  and  _653
REMARK  250  A    between atoms: _653  and  _654
REMARK  251  A    between atoms: _653  and  _656
REMARK  252  A    between atoms: _656  and  _657
REMARK  253  A    between atoms: _660  and  _662
REMARK  254  A    between atoms: _662  and  _663
REMARK  255  A    between atoms: _662  and  _665
REMARK  256  A    between atoms: _665  and  _666
REMARK  257  A    between atoms: _669  and  _671
REMARK  258  A    between atoms: _671  and  _672
REMARK  259  A    between atoms: _671  and  _674
REMARK  260  A    between atoms: _674  and  _675
REMARK                            x       y       z     vdW  Elec       q    Type
REMARK                         _______ _______ _______ _____ _____    ______ ____
ROOT
ATOM      1  O   HOH     1       9.211  22.225  18.455  0.00  0.00    +0.000 OA
ENDROOT
TORSDOF 0
REMARK  Name = ../refined-set-2016/1b32/1b32_pocket.pdb
REMARK  260 active torsions:
REMARK  status: ('A' for Active; 'I' for Inactive)
REMARK    1  A    between atoms: _1  and  _3
REMARK    2  A    between atoms: _3  and  _4
REMARK    3  A    between atoms: _3  and  _6
REMARK    4  A    between atoms: _6  and  _7
REMARK    5  A    between atoms: _12  and  _14
REMARK    6  A    between atoms: _14  and  _15
REMARK    7  A    between atoms: _14  and  _17
REMARK    8  A    between atoms: _17  and  _18
REMARK    9  A    between atoms: _20  and  _22
REMARK   10  A    between atoms: _22  and  _23
REMARK   11  A    between atoms: _22  and  _25
REMARK   12  A    between atoms: _25  and  _26
REMARK   13  A    between atoms: _26  and  _27
REMARK   14  A    between atoms: _32  and  _34
REMARK   15  A    between atoms: _34  and  _35
REMARK   16  A    between atoms: _34  and  _37
REMARK   17  A    between atoms: _37  and  _38
REMARK   18  A    between atoms: _41  and  _43
REMARK   19  A    between atoms: _43  and  _44
REMARK   20  A    between atoms: _43  and  _46
REMARK   21  A    between atoms: _46  and  _47
REMARK   22  A    between atoms: _47  and  _48
REMARK   23  A    between atoms: _51  and  _53
REMARK   24  A    between atoms: _53  and  _54
REMARK   25  A    between atoms: _56  and  _58
REMARK   26  A    between atoms: _58  and  _59
REMARK   27  A    between atoms: _58  and  _61
REMARK   28  A    between atoms: _65  and  _66
REMARK   29  A    between atoms: _71  and  _73
REMARK   30  A    between atoms: _73  and  _74
REMARK   31  A    between atoms: _73  and  _76
REMARK   32  A    between atoms: _76  and  _77
REMARK   33  A    between atoms: _77  and  _78
REMARK   34  A    between atoms: _81  and  _83
REMARK   35  A    between atoms: _83  and  _84
REMARK   36  A    between atoms: _83  and  _86
REMARK   37  A    between atoms: _86  and  _87
REMARK   38  A    between atoms: _89  and  _91
REMARK   39  A    between atoms: _91  and  _92
REMARK   40  A    between atoms: _91  and  _94
REMARK   41  A    between atoms: _94  and  _95
REMARK   42  A    between atoms: _100  and  _102
REMARK   43  A    between atoms: _102  and  _103
REMARK   44  A    between atoms: _102  and  _105
REMARK   45  A    between atoms: _105  and  _106
REMARK   46  A    between atoms: _106  and  _107
REMARK   47  A    between atoms: _107  and  _108
REMARK   48  A    between atoms: _118  and  _119
REMARK   49  A    between atoms: _124  and  _126
REMARK   50  A    between atoms: _126  and  _127
REMARK   51  A    between atoms: _126  and  _129
REMARK   52  A    between atoms: _129  and  _130
REMARK   53  A    between atoms: _135  and  _136
REMARK   54  A    between atoms: _138  and  _140
REMARK   55  A    between atoms: _140  and  _141
REMARK   56  A    between atoms: _140  and  _143
REMARK   57  A    between atoms: _143  and  _144
REMARK   58  A    between atoms: _149  and  _150
REMARK   59  A    between atoms: _152  and  _154
REMARK   60  A    between atoms: _154  and  _155
REMARK   61  A    between atoms: _154  and  _157
REMARK   62  A    between atoms: _160  and  _162
REMARK   63  A    between atoms: _162  and  _163
REMARK   64  A    between atoms: _162  and  _165
REMARK   65  A    between atoms: _165  and  _166
REMARK   66  A    between atoms: _172  and  _173
REMARK   67  A    between atoms: _178  and  _180
REMARK   68  A    between atoms: _180  and  _181
REMARK   69  A    between atoms: _180  and  _183
REMARK   70  A    between atoms: _183  and  _184
REMARK   71  A    between atoms: _186  and  _188
REMARK   72  A    between atoms: _188  and  _189
REMARK   73  A    between atoms: _188  and  _191
REMARK   74  A    between atoms: _191  and  _192
REMARK   75  A    between atoms: _197  and  _198
REMARK   76  A    between atoms: _200  and  _202
REMARK   77  A    between atoms: _202  and  _203
REMARK   78  A    between atoms: _202  and  _205
REMARK   79  A    between atoms: _205  and  _206
REMARK   80  A    between atoms: _211  and  _213
REMARK   81  A    between atoms: _213  and  _214
REMARK   82  A    between atoms: _213  and  _216
REMARK   83  A    between atoms: _216  and  _217
REMARK   84  A    between atoms: _222  and  _224
REMARK   85  A    between atoms: _224  and  _225
REMARK   86  A    between atoms: _224  and  _227
REMARK   87  A    between atoms: _227  and  _228
REMARK   88  A    between atoms: _228  and  _229
REMARK   89  A    between atoms: _231  and  _233
REMARK   90  A    between atoms: _233  and  _234
REMARK   91  A    between atoms: _233  and  _236
REMARK   92  A    between atoms: _236  and  _237
REMARK   93  A    between atoms: _242  and  _243
REMARK   94  A    between atoms: _245  and  _247
REMARK   95  A    between atoms: _247  and  _248
REMARK   96  A    between atoms: _247  and  _250
REMARK   97  A    between atoms: _250  and  _251
REMARK   98  A    between atoms: _254  and  _256
REMARK   99  A    between atoms: _256  and  _257
REMARK  100  A    between atoms: _256  and  _259
REMARK  101  A    between atoms: _259  and  _260
REMARK  102  A    between atoms: _260  and  _477
REMARK  103  A    between atoms: _261  and  _263
REMARK  104  A    between atoms: _263  and  _264
REMARK  105  A    between atoms: _263  and  _266
REMARK  106  A    between atoms: _266  and  _267
REMARK  107  A    between atoms: _270  and  _272
REMARK  108  A    between atoms: _272  and  _273
REMARK  109  A    between atoms: _272  and  _275
REMARK  110  A    between atoms: _275  and  _276
REMARK  111  A    between atoms: _281  and  _282
REMARK  112  A    between atoms: _284  and  _286
REMARK  113  A    between atoms: _286  and  _287
REMARK  114  A    between atoms: _286  and  _289
REMARK  115  A    between atoms: _289  and  _290
REMARK  116  A    between atoms: _295  and  _296
REMARK  117  A    between atoms: _298  and  _300
REMARK  118  A    between atoms: _300  and  _301
REMARK  119  A    between atoms: _300  and  _303
REMARK  120  A    between atoms: _303  and  _304
REMARK  121  A    between atoms: _304  and  _305
REMARK  122  A    between atoms: _308  and  _310
REMARK  123  A    between atoms: _310  and  _311
REMARK  124  A    between atoms: _310  and  _313
REMARK  125  A    between atoms: _313  and  _314
REMARK  126  A    between atoms: _319  and  _320
REMARK  127  A    between atoms: _322  and  _324
REMARK  128  A    between atoms: _324  and  _325
REMARK  129  A    between atoms: _324  and  _327
REMARK  130  A    between atoms: _327  and  _328
REMARK  131  A    between atoms: _333  and  _335
REMARK  132  A    between atoms: _335  and  _336
REMARK  133  A    between atoms: _335  and  _338
REMARK  134  A    between atoms: _338  and  _339
REMARK  135  A    between atoms: _342  and  _344
REMARK  136  A    between atoms: _344  and  _345
REMARK  137  A    between atoms: _344  and  _347
REMARK  138  A    between atoms: _347  and  _348
REMARK  139  A    between atoms: _353  and  _355
REMARK  140  A    between atoms: _355  and  _356
REMARK  141  A    between atoms: _355  and  _358
REMARK  142  A    between atoms: _358  and  _359
REMARK  143  A    between atoms: _369  and  _371
REMARK  144  A    between atoms: _371  and  _372
REMARK  145  A    between atoms: _371  and  _374
REMARK  146  A    between atoms: _374  and  _375
REMARK  147  A    between atoms: _381  and  _383
REMARK  148  A    between atoms: _383  and  _384
REMARK  149  A    between atoms: _383  and  _386
REMARK  150  A    between atoms: _386  and  _387
REMARK  151  A    between atoms: _390  and  _392
REMARK  152  A    between atoms: _392  and  _393
REMARK  153  A    between atoms: _392  and  _395
REMARK  154  A    between atoms: _395  and  _396
REMARK  155  A    between atoms: _399  and  _401
REMARK  156  A    between atoms: _401  and  _402
REMARK  157  A    between atoms: _401  and  _404
REMARK  158  A    between atoms: _404  and  _405
REMARK  159  A    between atoms: _405  and  _406
REMARK  160  A    between atoms: _406  and  _407
REMARK  161  A    between atoms: _416  and  _418
REMARK  162  A    between atoms: _418  and  _419
REMARK  163  A    between atoms: _418  and  _421
REMARK  164  A    between atoms: _421  and  _422
REMARK  165  A    between atoms: _427  and  _429
REMARK  166  A    between atoms: _429  and  _430
REMARK  167  A    between atoms: _429  and  _432
REMARK  168  A    between atoms: _432  and  _433
REMARK  169  A    between atoms: _433  and  _434
REMARK  170  A    between atoms: _434  and  _435
REMARK  171  A    between atoms: _444  and  _446
REMARK  172  A    between atoms: _446  and  _447
REMARK  173  A    between atoms: _450  and  _452
REMARK  174  A    between atoms: _452  and  _453
REMARK  175  A    between atoms: _455  and  _457
REMARK  176  A    between atoms: _457  and  _458
REMARK  177  A    between atoms: _457  and  _460
REMARK  178  A    between atoms: _460  and  _461
REMARK  179  A    between atoms: _471  and  _473
REMARK  180  A    between atoms: _473  and  _474
REMARK  181  A    between atoms: _473  and  _476
REMARK  182  A    between atoms: _476  and  _477
REMARK  183  A    between atoms: _478  and  _480
REMARK  184  A    between atoms: _480  and  _481
REMARK  185  A    between atoms: _484  and  _486
REMARK  186  A    between atoms: _486  and  _487
REMARK  187  A    between atoms: _486  and  _489
REMARK  188  A    between atoms: _489  and  _490
REMARK  189  A    between atoms: _493  and  _495
REMARK  190  A    between atoms: _495  and  _496
REMARK  191  A    between atoms: _495  and  _498
REMARK  192  A    between atoms: _498  and  _499
REMARK  193  A    between atoms: _504  and  _505
REMARK  194  A    between atoms: _507  and  _509
REMARK  195  A    between atoms: _509  and  _510
REMARK  196  A    between atoms: _509  and  _512
REMARK  197  A    between atoms: _512  and  _513
REMARK  198  A    between atoms: _515  and  _517
REMARK  199  A    between atoms: _517  and  _518
REMARK  200  A    between atoms: _517  and  _520
REMARK  201  A    between atoms: _520  and  _521
REMARK  202  A    between atoms: _527  and  _529
REMARK  203  A    between atoms: _529  and  _530
REMARK  204  A    between atoms: _529  and  _532
REMARK  205  A    between atoms: _532  and  _533
REMARK  206  A    between atoms: _536  and  _538
REMARK  207  A    between atoms: _538  and  _539
REMARK  208  A    between atoms: _538  and  _541
REMARK  209  A    between atoms: _541  and  _542
REMARK  210  A    between atoms: _544  and  _546
REMARK  211  A    between atoms: _546  and  _547
REMARK  212  A    between atoms: _546  and  _549
REMARK  213  A    between atoms: _549  and  _550
REMARK  214  A    between atoms: _555  and  _557
REMARK  215  A    between atoms: _557  and  _558
REMARK  216  A    between atoms: _557  and  _560
REMARK  217  A    between atoms: _560  and  _561
REMARK  218  A    between atoms: _566  and  _568
REMARK  219  A    between atoms: _568  and  _569
REMARK  220  A    between atoms: _568  and  _571
REMARK  221  A    between atoms: _571  and  _572
REMARK  222  A    between atoms: _575  and  _577
REMARK  223  A    between atoms: _577  and  _578
REMARK  224  A    between atoms: _581  and  _583
REMARK  225  A    between atoms: _583  and  _584
REMARK  226  A    between atoms: _583  and  _586
REMARK  227  A    between atoms: _586  and  _587
REMARK  228  A    between atoms: _592  and  _593
REMARK  229  A    between atoms: _595  and  _597
REMARK  230  A    between atoms: _597  and  _598
REMARK  231  A    between atoms: _597  and  _600
REMARK  232  A    between atoms: _600  and  _601
REMARK  233  A    between atoms: _606  and  _607
REMARK  234  A    between atoms: _609  and  _611
REMARK  235  A    between atoms: _611  and  _612
REMARK  236  A    between atoms: _611  and  _614
REMARK  237  A    between atoms: _617  and  _619
REMARK  238  A    between atoms: _619  and  _620
REMARK  239  A    between atoms: _619  and  _622
REMARK  240  A    between atoms: _622  and  _623
REMARK  241  A    between atoms: _628  and  _630
REMARK  242  A    between atoms: _630  and  _631
REMARK  243  A    between atoms: _634  and  _636
REMARK  244  A    between atoms: _636  and  _637
REMARK  245  A    between atoms: _636  and  _639
REMARK  246  A    between atoms: _639  and  _640
REMARK  247  A    between atoms: _640  and  _641
REMARK  248  A    between atoms: _641  and  _642
REMARK  249  A    between atoms: _651  and  _653
REMARK  250  A    between atoms: _653  and  _654
REMARK  251  A    between atoms: _653  and  _656
REMARK  252  A    between atoms: _656  and  _657
REMARK  253  A    between atoms: _660  and  _662
REMARK  254  A    between atoms: _662  and  _663
REMARK  255  A    between atoms: _662  and  _665
REMARK  256  A    between atoms: _665  and  _666
REMARK  257  A    between atoms: _669  and  _671
REMARK  258  A    between atoms: _671  and  _672
REMARK  259  A    between atoms: _671  and  _674
REMARK  260  A    between atoms: _674  and  _675
REMARK                            x       y       z     vdW  Elec       q    Type
REMARK                         _______ _______ _______ _____ _____    ______ ____
ROOT
ATOM      1  O   HOH     1       8.194  19.861  25.046  0.00  0.00    +0.000 OA
ENDROOT
TORSDOF 0
REMARK  Name = ../refined-set-2016/1b32/1b32_pocket.pdb
REMARK  260 active torsions:
REMARK  status: ('A' for Active; 'I' for Inactive)
REMARK    1  A    between atoms: _1  and  _3
REMARK    2  A    between atoms: _3  and  _4
REMARK    3  A    between atoms: _3  and  _6
REMARK    4  A    between atoms: _6  and  _7
REMARK    5  A    between atoms: _12  and  _14
REMARK    6  A    between atoms: _14  and  _15
REMARK    7  A    between atoms: _14  and  _17
REMARK    8  A    between atoms: _17  and  _18
REMARK    9  A    between atoms: _20  and  _22
REMARK   10  A    between atoms: _22  and  _23
REMARK   11  A    between atoms: _22  and  _25
REMARK   12  A    between atoms: _25  and  _26
REMARK   13  A    between atoms: _26  and  _27
REMARK   14  A    between atoms: _32  and  _34
REMARK   15  A    between atoms: _34  and  _35
REMARK   16  A    between atoms: _34  and  _37
REMARK   17  A    between atoms: _37  and  _38
REMARK   18  A    between atoms: _41  and  _43
REMARK   19  A    between atoms: _43  and  _44
REMARK   20  A    between atoms: _43  and  _46
REMARK   21  A    between atoms: _46  and  _47
REMARK   22  A    between atoms: _47  and  _48
REMARK   23  A    between atoms: _51  and  _53
REMARK   24  A    between atoms: _53  and  _54
REMARK   25  A    between atoms: _56  and  _58
REMARK   26  A    between atoms: _58  and  _59
REMARK   27  A    between atoms: _58  and  _61
REMARK   28  A    between atoms: _65  and  _66
REMARK   29  A    between atoms: _71  and  _73
REMARK   30  A    between atoms: _73  and  _74
REMARK   31  A    between atoms: _73  and  _76
REMARK   32  A    between atoms: _76  and  _77
REMARK   33  A    between atoms: _77  and  _78
REMARK   34  A    between atoms: _81  and  _83
REMARK   35  A    between atoms: _83  and  _84
REMARK   36  A    between atoms: _83  and  _86
REMARK   37  A    between atoms: _86  and  _87
REMARK   38  A    between atoms: _89  and  _91
REMARK   39  A    between atoms: _91  and  _92
REMARK   40  A    between atoms: _91  and  _94
REMARK   41  A    between atoms: _94  and  _95
REMARK   42  A    between atoms: _100  and  _102
REMARK   43  A    between atoms: _102  and  _103
REMARK   44  A    between atoms: _102  and  _105
REMARK   45  A    between atoms: _105  and  _106
REMARK   46  A    between atoms: _106  and  _107
REMARK   47  A    between atoms: _107  and  _108
REMARK   48  A    between atoms: _118  and  _119
REMARK   49  A    between atoms: _124  and  _126
REMARK   50  A    between atoms: _126  and  _127
REMARK   51  A    between atoms: _126  and  _129
REMARK   52  A    between atoms: _129  and  _130
REMARK   53  A    between atoms: _135  and  _136
REMARK   54  A    between atoms: _138  and  _140
REMARK   55  A    between atoms: _140  and  _141
REMARK   56  A    between atoms: _140  and  _143
REMARK   57  A    between atoms: _143  and  _144
REMARK   58  A    between atoms: _149  and  _150
REMARK   59  A    between atoms: _152  and  _154
REMARK   60  A    between atoms: _154  and  _155
REMARK   61  A    between atoms: _154  and  _157
REMARK   62  A    between atoms: _160  and  _162
REMARK   63  A    between atoms: _162  and  _163
REMARK   64  A    between atoms: _162  and  _165
REMARK   65  A    between atoms: _165  and  _166
REMARK   66  A    between atoms: _172  and  _173
REMARK   67  A    between atoms: _178  and  _180
REMARK   68  A    between atoms: _180  and  _181
REMARK   69  A    between atoms: _180  and  _183
REMARK   70  A    between atoms: _183  and  _184
REMARK   71  A    between atoms: _186  and  _188
REMARK   72  A    between atoms: _188  and  _189
REMARK   73  A    between atoms: _188  and  _191
REMARK   74  A    between atoms: _191  and  _192
REMARK   75  A    between atoms: _197  and  _198
REMARK   76  A    between atoms: _200  and  _202
REMARK   77  A    between atoms: _202  and  _203
REMARK   78  A    between atoms: _202  and  _205
REMARK   79  A    between atoms: _205  and  _206
REMARK   80  A    between atoms: _211  and  _213
REMARK   81  A    between atoms: _213  and  _214
REMARK   82  A    between atoms: _213  and  _216
REMARK   83  A    between atoms: _216  and  _217
REMARK   84  A    between atoms: _222  and  _224
REMARK   85  A    between atoms: _224  and  _225
REMARK   86  A    between atoms: _224  and  _227
REMARK   87  A    between atoms: _227  and  _228
REMARK   88  A    between atoms: _228  and  _229
REMARK   89  A    between atoms: _231  and  _233
REMARK   90  A    between atoms: _233  and  _234
REMARK   91  A    between atoms: _233  and  _236
REMARK   92  A    between atoms: _236  and  _237
REMARK   93  A    between atoms: _242  and  _243
REMARK   94  A    between atoms: _245  and  _247
REMARK   95  A    between atoms: _247  and  _248
REMARK   96  A    between atoms: _247  and  _250
REMARK   97  A    between atoms: _250  and  _251
REMARK   98  A    between atoms: _254  and  _256
REMARK   99  A    between atoms: _256  and  _257
REMARK  100  A    between atoms: _256  and  _259
REMARK  101  A    between atoms: _259  and  _260
REMARK  102  A    between atoms: _260  and  _477
REMARK  103  A    between atoms: _261  and  _263
REMARK  104  A    between atoms: _263  and  _264
REMARK  105  A    between atoms: _263  and  _266
REMARK  106  A    between atoms: _266  and  _267
REMARK  107  A    between atoms: _270  and  _272
REMARK  108  A    between atoms: _272  and  _273
REMARK  109  A    between atoms: _272  and  _275
REMARK  110  A    between atoms: _275  and  _276
REMARK  111  A    between atoms: _281  and  _282
REMARK  112  A    between atoms: _284  and  _286
REMARK  113  A    between atoms: _286  and  _287
REMARK  114  A    between atoms: _286  and  _289
REMARK  115  A    between atoms: _289  and  _290
REMARK  116  A    between atoms: _295  and  _296
REMARK  117  A    between atoms: _298  and  _300
REMARK  118  A    between atoms: _300  and  _301
REMARK  119  A    between atoms: _300  and  _303
REMARK  120  A    between atoms: _303  and  _304
REMARK  121  A    between atoms: _304  and  _305
REMARK  122  A    between atoms: _308  and  _310
REMARK  123  A    between atoms: _310  and  _311
REMARK  124  A    between atoms: _310  and  _313
REMARK  125  A    between atoms: _313  and  _314
REMARK  126  A    between atoms: _319  and  _320
REMARK  127  A    between atoms: _322  and  _324
REMARK  128  A    between atoms: _324  and  _325
REMARK  129  A    between atoms: _324  and  _327
REMARK  130  A    between atoms: _327  and  _328
REMARK  131  A    between atoms: _333  and  _335
REMARK  132  A    between atoms: _335  and  _336
REMARK  133  A    between atoms: _335  and  _338
REMARK  134  A    between atoms: _338  and  _339
REMARK  135  A    between atoms: _342  and  _344
REMARK  136  A    between atoms: _344  and  _345
REMARK  137  A    between atoms: _344  and  _347
REMARK  138  A    between atoms: _347  and  _348
REMARK  139  A    between atoms: _353  and  _355
REMARK  140  A    between atoms: _355  and  _356
REMARK  141  A    between atoms: _355  and  _358
REMARK  142  A    between atoms: _358  and  _359
REMARK  143  A    between atoms: _369  and  _371
REMARK  144  A    between atoms: _371  and  _372
REMARK  145  A    between atoms: _371  and  _374
REMARK  146  A    between atoms: _374  and  _375
REMARK  147  A    between atoms: _381  and  _383
REMARK  148  A    between atoms: _383  and  _384
REMARK  149  A    between atoms: _383  and  _386
REMARK  150  A    between atoms: _386  and  _387
REMARK  151  A    between atoms: _390  and  _392
REMARK  152  A    between atoms: _392  and  _393
REMARK  153  A    between atoms: _392  and  _395
REMARK  154  A    between atoms: _395  and  _396
REMARK  155  A    between atoms: _399  and  _401
REMARK  156  A    between atoms: _401  and  _402
REMARK  157  A    between atoms: _401  and  _404
REMARK  158  A    between atoms: _404  and  _405
REMARK  159  A    between atoms: _405  and  _406
REMARK  160  A    between atoms: _406  and  _407
REMARK  161  A    between atoms: _416  and  _418
REMARK  162  A    between atoms: _418  and  _419
REMARK  163  A    between atoms: _418  and  _421
REMARK  164  A    between atoms: _421  and  _422
REMARK  165  A    between atoms: _427  and  _429
REMARK  166  A    between atoms: _429  and  _430
REMARK  167  A    between atoms: _429  and  _432
REMARK  168  A    between atoms: _432  and  _433
REMARK  169  A    between atoms: _433  and  _434
REMARK  170  A    between atoms: _434  and  _435
REMARK  171  A    between atoms: _444  and  _446
REMARK  172  A    between atoms: _446  and  _447
REMARK  173  A    between atoms: _450  and  _452
REMARK  174  A    between atoms: _452  and  _453
REMARK  175  A    between atoms: _455  and  _457
REMARK  176  A    between atoms: _457  and  _458
REMARK  177  A    between atoms: _457  and  _460
REMARK  178  A    between atoms: _460  and  _461
REMARK  179  A    between atoms: _471  and  _473
REMARK  180  A    between atoms: _473  and  _474
REMARK  181  A    between atoms: _473  and  _476
REMARK  182  A    between atoms: _476  and  _477
REMARK  183  A    between atoms: _478  and  _480
REMARK  184  A    between atoms: _480  and  _481
REMARK  185  A    between atoms: _484  and  _486
REMARK  186  A    between atoms: _486  and  _487
REMARK  187  A    between atoms: _486  and  _489
REMARK  188  A    between atoms: _489  and  _490
REMARK  189  A    between atoms: _493  and  _495
REMARK  190  A    between atoms: _495  and  _496
REMARK  191  A    between atoms: _495  and  _498
REMARK  192  A    between atoms: _498  and  _499
REMARK  193  A    between atoms: _504  and  _505
REMARK  194  A    between atoms: _507  and  _509
REMARK  195  A    between atoms: _509  and  _510
REMARK  196  A    between atoms: _509  and  _512
REMARK  197  A    between atoms: _512  and  _513
REMARK  198  A    between atoms: _515  and  _517
REMARK  199  A    between atoms: _517  and  _518
REMARK  200  A    between atoms: _517  and  _520
REMARK  201  A    between atoms: _520  and  _521
REMARK  202  A    between atoms: _527  and  _529
REMARK  203  A    between atoms: _529  and  _530
REMARK  204  A    between atoms: _529  and  _532
REMARK  205  A    between atoms: _532  and  _533
REMARK  206  A    between atoms: _536  and  _538
REMARK  207  A    between atoms: _538  and  _539
REMARK  208  A    between atoms: _538  and  _541
REMARK  209  A    between atoms: _541  and  _542
REMARK  210  A    between atoms: _544  and  _546
REMARK  211  A    between atoms: _546  and  _547
REMARK  212  A    between atoms: _546  and  _549
REMARK  213  A    between atoms: _549  and  _550
REMARK  214  A    between atoms: _555  and  _557
REMARK  215  A    between atoms: _557  and  _558
REMARK  216  A    between atoms: _557  and  _560
REMARK  217  A    between atoms: _560  and  _561
REMARK  218  A    between atoms: _566  and  _568
REMARK  219  A    between atoms: _568  and  _569
REMARK  220  A    between atoms: _568  and  _571
REMARK  221  A    between atoms: _571  and  _572
REMARK  222  A    between atoms: _575  and  _577
REMARK  223  A    between atoms: _577  and  _578
REMARK  224  A    between atoms: _581  and  _583
REMARK  225  A    between atoms: _583  and  _584
REMARK  226  A    between atoms: _583  and  _586
REMARK  227  A    between atoms: _586  and  _587
REMARK  228  A    between atoms: _592  and  _593
REMARK  229  A    between atoms: _595  and  _597
REMARK  230  A    between atoms: _597  and  _598
REMARK  231  A    between atoms: _597  and  _600
REMARK  232  A    between atoms: _600  and  _601
REMARK  233  A    between atoms: _606  and  _607
REMARK  234  A    between atoms: _609  and  _611
REMARK  235  A    between atoms: _611  and  _612
REMARK  236  A    between atoms: _611  and  _614
REMARK  237  A    between atoms: _617  and  _619
REMARK  238  A    between atoms: _619  and  _620
REMARK  239  A    between atoms: _619  and  _622
REMARK  240  A    between atoms: _622  and  _623
REMARK  241  A    between atoms: _628  and  _630
REMARK  242  A    between atoms: _630  and  _631
REMARK  243  A    between atoms: _634  and  _636
REMARK  244  A    between atoms: _636  and  _637
REMARK  245  A    between atoms: _636  and  _639
REMARK  246  A    between atoms: _639  and  _640
REMARK  247  A    between atoms: _640  and  _641
REMARK  248  A    between atoms: _641  and  _642
REMARK  249  A    between atoms: _651  and  _653
REMARK  250  A    between atoms: _653  and  _654
REMARK  251  A    between atoms: _653  and  _656
REMARK  252  A    between atoms: _656  and  _657
REMARK  253  A    between atoms: _660  and  _662
REMARK  254  A    between atoms: _662  and  _663
REMARK  255  A    between atoms: _662  and  _665
REMARK  256  A    between atoms: _665  and  _666
REMARK  257  A    between atoms: _669  and  _671
REMARK  258  A    between atoms: _671  and  _672
REMARK  259  A    between atoms: _671  and  _674
REMARK  260  A    between atoms: _674  and  _675
REMARK                            x       y       z     vdW  Elec       q    Type
REMARK                         _______ _______ _______ _____ _____    ______ ____
ROOT
ATOM      1  O   HOH     1       3.462  20.112  21.094  0.00  0.00    +0.000 OA
ENDROOT
TORSDOF 0
REMARK  Name = ../refined-set-2016/1b32/1b32_pocket.pdb
REMARK  260 active torsions:
REMARK  status: ('A' for Active; 'I' for Inactive)
REMARK    1  A    between atoms: _1  and  _3
REMARK    2  A    between atoms: _3  and  _4
REMARK    3  A    between atoms: _3  and  _6
REMARK    4  A    between atoms: _6  and  _7
REMARK    5  A    between atoms: _12  and  _14
REMARK    6  A    between atoms: _14  and  _15
REMARK    7  A    between atoms: _14  and  _17
REMARK    8  A    between atoms: _17  and  _18
REMARK    9  A    between atoms: _20  and  _22
REMARK   10  A    between atoms: _22  and  _23
REMARK   11  A    between atoms: _22  and  _25
REMARK   12  A    between atoms: _25  and  _26
REMARK   13  A    between atoms: _26  and  _27
REMARK   14  A    between atoms: _32  and  _34
REMARK   15  A    between atoms: _34  and  _35
REMARK   16  A    between atoms: _34  and  _37
REMARK   17  A    between atoms: _37  and  _38
REMARK   18  A    between atoms: _41  and  _43
REMARK   19  A    between atoms: _43  and  _44
REMARK   20  A    between atoms: _43  and  _46
REMARK   21  A    between atoms: _46  and  _47
REMARK   22  A    between atoms: _47  and  _48
REMARK   23  A    between atoms: _51  and  _53
REMARK   24  A    between atoms: _53  and  _54
REMARK   25  A    between atoms: _56  and  _58
REMARK   26  A    between atoms: _58  and  _59
REMARK   27  A    between atoms: _58  and  _61
REMARK   28  A    between atoms: _65  and  _66
REMARK   29  A    between atoms: _71  and  _73
REMARK   30  A    between atoms: _73  and  _74
REMARK   31  A    between atoms: _73  and  _76
REMARK   32  A    between atoms: _76  and  _77
REMARK   33  A    between atoms: _77  and  _78
REMARK   34  A    between atoms: _81  and  _83
REMARK   35  A    between atoms: _83  and  _84
REMARK   36  A    between atoms: _83  and  _86
REMARK   37  A    between atoms: _86  and  _87
REMARK   38  A    between atoms: _89  and  _91
REMARK   39  A    between atoms: _91  and  _92
REMARK   40  A    between atoms: _91  and  _94
REMARK   41  A    between atoms: _94  and  _95
REMARK   42  A    between atoms: _100  and  _102
REMARK   43  A    between atoms: _102  and  _103
REMARK   44  A    between atoms: _102  and  _105
REMARK   45  A    between atoms: _105  and  _106
REMARK   46  A    between atoms: _106  and  _107
REMARK   47  A    between atoms: _107  and  _108
REMARK   48  A    between atoms: _118  and  _119
REMARK   49  A    between atoms: _124  and  _126
REMARK   50  A    between atoms: _126  and  _127
REMARK   51  A    between atoms: _126  and  _129
REMARK   52  A    between atoms: _129  and  _130
REMARK   53  A    between atoms: _135  and  _136
REMARK   54  A    between atoms: _138  and  _140
REMARK   55  A    between atoms: _140  and  _141
REMARK   56  A    between atoms: _140  and  _143
REMARK   57  A    between atoms: _143  and  _144
REMARK   58  A    between atoms: _149  and  _150
REMARK   59  A    between atoms: _152  and  _154
REMARK   60  A    between atoms: _154  and  _155
REMARK   61  A    between atoms: _154  and  _157
REMARK   62  A    between atoms: _160  and  _162
REMARK   63  A    between atoms: _162  and  _163
REMARK   64  A    between atoms: _162  and  _165
REMARK   65  A    between atoms: _165  and  _166
REMARK   66  A    between atoms: _172  and  _173
REMARK   67  A    between atoms: _178  and  _180
REMARK   68  A    between atoms: _180  and  _181
REMARK   69  A    between atoms: _180  and  _183
REMARK   70  A    between atoms: _183  and  _184
REMARK   71  A    between atoms: _186  and  _188
REMARK   72  A    between atoms: _188  and  _189
REMARK   73  A    between atoms: _188  and  _191
REMARK   74  A    between atoms: _191  and  _192
REMARK   75  A    between atoms: _197  and  _198
REMARK   76  A    between atoms: _200  and  _202
REMARK   77  A    between atoms: _202  and  _203
REMARK   78  A    between atoms: _202  and  _205
REMARK   79  A    between atoms: _205  and  _206
REMARK   80  A    between atoms: _211  and  _213
REMARK   81  A    between atoms: _213  and  _214
REMARK   82  A    between atoms: _213  and  _216
REMARK   83  A    between atoms: _216  and  _217
REMARK   84  A    between atoms: _222  and  _224
REMARK   85  A    between atoms: _224  and  _225
REMARK   86  A    between atoms: _224  and  _227
REMARK   87  A    between atoms: _227  and  _228
REMARK   88  A    between atoms: _228  and  _229
REMARK   89  A    between atoms: _231  and  _233
REMARK   90  A    between atoms: _233  and  _234
REMARK   91  A    between atoms: _233  and  _236
REMARK   92  A    between atoms: _236  and  _237
REMARK   93  A    between atoms: _242  and  _243
REMARK   94  A    between atoms: _245  and  _247
REMARK   95  A    between atoms: _247  and  _248
REMARK   96  A    between atoms: _247  and  _250
REMARK   97  A    between atoms: _250  and  _251
REMARK   98  A    between atoms: _254  and  _256
REMARK   99  A    between atoms: _256  and  _257
REMARK  100  A    between atoms: _256  and  _259
REMARK  101  A    between atoms: _259  and  _260
REMARK  102  A    between atoms: _260  and  _477
REMARK  103  A    between atoms: _261  and  _263
REMARK  104  A    between atoms: _263  and  _264
REMARK  105  A    between atoms: _263  and  _266
REMARK  106  A    between atoms: _266  and  _267
REMARK  107  A    between atoms: _270  and  _272
REMARK  108  A    between atoms: _272  and  _273
REMARK  109  A    between atoms: _272  and  _275
REMARK  110  A    between atoms: _275  and  _276
REMARK  111  A    between atoms: _281  and  _282
REMARK  112  A    between atoms: _284  and  _286
REMARK  113  A    between atoms: _286  and  _287
REMARK  114  A    between atoms: _286  and  _289
REMARK  115  A    between atoms: _289  and  _290
REMARK  116  A    between atoms: _295  and  _296
REMARK  117  A    between atoms: _298  and  _300
REMARK  118  A    between atoms: _300  and  _301
REMARK  119  A    between atoms: _300  and  _303
REMARK  120  A    between atoms: _303  and  _304
REMARK  121  A    between atoms: _304  and  _305
REMARK  122  A    between atoms: _308  and  _310
REMARK  123  A    between atoms: _310  and  _311
REMARK  124  A    between atoms: _310  and  _313
REMARK  125  A    between atoms: _313  and  _314
REMARK  126  A    between atoms: _319  and  _320
REMARK  127  A    between atoms: _322  and  _324
REMARK  128  A    between atoms: _324  and  _325
REMARK  129  A    between atoms: _324  and  _327
REMARK  130  A    between atoms: _327  and  _328
REMARK  131  A    between atoms: _333  and  _335
REMARK  132  A    between atoms: _335  and  _336
REMARK  133  A    between atoms: _335  and  _338
REMARK  134  A    between atoms: _338  and  _339
REMARK  135  A    between atoms: _342  and  _344
REMARK  136  A    between atoms: _344  and  _345
REMARK  137  A    between atoms: _344  and  _347
REMARK  138  A    between atoms: _347  and  _348
REMARK  139  A    between atoms: _353  and  _355
REMARK  140  A    between atoms: _355  and  _356
REMARK  141  A    between atoms: _355  and  _358
REMARK  142  A    between atoms: _358  and  _359
REMARK  143  A    between atoms: _369  and  _371
REMARK  144  A    between atoms: _371  and  _372
REMARK  145  A    between atoms: _371  and  _374
REMARK  146  A    between atoms: _374  and  _375
REMARK  147  A    between atoms: _381  and  _383
REMARK  148  A    between atoms: _383  and  _384
REMARK  149  A    between atoms: _383  and  _386
REMARK  150  A    between atoms: _386  and  _387
REMARK  151  A    between atoms: _390  and  _392
REMARK  152  A    between atoms: _392  and  _393
REMARK  153  A    between atoms: _392  and  _395
REMARK  154  A    between atoms: _395  and  _396
REMARK  155  A    between atoms: _399  and  _401
REMARK  156  A    between atoms: _401  and  _402
REMARK  157  A    between atoms: _401  and  _404
REMARK  158  A    between atoms: _404  and  _405
REMARK  159  A    between atoms: _405  and  _406
REMARK  160  A    between atoms: _406  and  _407
REMARK  161  A    between atoms: _416  and  _418
REMARK  162  A    between atoms: _418  and  _419
REMARK  163  A    between atoms: _418  and  _421
REMARK  164  A    between atoms: _421  and  _422
REMARK  165  A    between atoms: _427  and  _429
REMARK  166  A    between atoms: _429  and  _430
REMARK  167  A    between atoms: _429  and  _432
REMARK  168  A    between atoms: _432  and  _433
REMARK  169  A    between atoms: _433  and  _434
REMARK  170  A    between atoms: _434  and  _435
REMARK  171  A    between atoms: _444  and  _446
REMARK  172  A    between atoms: _446  and  _447
REMARK  173  A    between atoms: _450  and  _452
REMARK  174  A    between atoms: _452  and  _453
REMARK  175  A    between atoms: _455  and  _457
REMARK  176  A    between atoms: _457  and  _458
REMARK  177  A    between atoms: _457  and  _460
REMARK  178  A    between atoms: _460  and  _461
REMARK  179  A    between atoms: _471  and  _473
REMARK  180  A    between atoms: _473  and  _474
REMARK  181  A    between atoms: _473  and  _476
REMARK  182  A    between atoms: _476  and  _477
REMARK  183  A    between atoms: _478  and  _480
REMARK  184  A    between atoms: _480  and  _481
REMARK  185  A    between atoms: _484  and  _486
REMARK  186  A    between atoms: _486  and  _487
REMARK  187  A    between atoms: _486  and  _489
REMARK  188  A    between atoms: _489  and  _490
REMARK  189  A    between atoms: _493  and  _495
REMARK  190  A    between atoms: _495  and  _496
REMARK  191  A    between atoms: _495  and  _498
REMARK  192  A    between atoms: _498  and  _499
REMARK  193  A    between atoms: _504  and  _505
REMARK  194  A    between atoms: _507  and  _509
REMARK  195  A    between atoms: _509  and  _510
REMARK  196  A    between atoms: _509  and  _512
REMARK  197  A    between atoms: _512  and  _513
REMARK  198  A    between atoms: _515  and  _517
REMARK  199  A    between atoms: _517  and  _518
REMARK  200  A    between atoms: _517  and  _520
REMARK  201  A    between atoms: _520  and  _521
REMARK  202  A    between atoms: _527  and  _529
REMARK  203  A    between atoms: _529  and  _530
REMARK  204  A    between atoms: _529  and  _532
REMARK  205  A    between atoms: _532  and  _533
REMARK  206  A    between atoms: _536  and  _538
REMARK  207  A    between atoms: _538  and  _539
REMARK  208  A    between atoms: _538  and  _541
REMARK  209  A    between atoms: _541  and  _542
REMARK  210  A    between atoms: _544  and  _546
REMARK  211  A    between atoms: _546  and  _547
REMARK  212  A    between atoms: _546  and  _549
REMARK  213  A    between atoms: _549  and  _550
REMARK  214  A    between atoms: _555  and  _557
REMARK  215  A    between atoms: _557  and  _558
REMARK  216  A    between atoms: _557  and  _560
REMARK  217  A    between atoms: _560  and  _561
REMARK  218  A    between atoms: _566  and  _568
REMARK  219  A    between atoms: _568  and  _569
REMARK  220  A    between atoms: _568  and  _571
REMARK  221  A    between atoms: _571  and  _572
REMARK  222  A    between atoms: _575  and  _577
REMARK  223  A    between atoms: _577  and  _578
REMARK  224  A    between atoms: _581  and  _583
REMARK  225  A    between atoms: _583  and  _584
REMARK  226  A    between atoms: _583  and  _586
REMARK  227  A    between atoms: _586  and  _587
REMARK  228  A    between atoms: _592  and  _593
REMARK  229  A    between atoms: _595  and  _597
REMARK  230  A    between atoms: _597  and  _598
REMARK  231  A    between atoms: _597  and  _600
REMARK  232  A    between atoms: _600  and  _601
REMARK  233  A    between atoms: _606  and  _607
REMARK  234  A    between atoms: _609  and  _611
REMARK  235  A    between atoms: _611  and  _612
REMARK  236  A    between atoms: _611  and  _614
REMARK  237  A    between atoms: _617  and  _619
REMARK  238  A    between atoms: _619  and  _620
REMARK  239  A    between atoms: _619  and  _622
REMARK  240  A    between atoms: _622  and  _623
REMARK  241  A    between atoms: _628  and  _630
REMARK  242  A    between atoms: _630  and  _631
REMARK  243  A    between atoms: _634  and  _636
REMARK  244  A    between atoms: _636  and  _637
REMARK  245  A    between atoms: _636  and  _639
REMARK  246  A    between atoms: _639  and  _640
REMARK  247  A    between atoms: _640  and  _641
REMARK  248  A    between atoms: _641  and  _642
REMARK  249  A    between atoms: _651  and  _653
REMARK  250  A    between atoms: _653  and  _654
REMARK  251  A    between atoms: _653  and  _656
REMARK  252  A    between atoms: _656  and  _657
REMARK  253  A    between atoms: _660  and  _662
REMARK  254  A    between atoms: _662  and  _663
REMARK  255  A    between atoms: _662  and  _665
REMARK  256  A    between atoms: _665  and  _666
REMARK  257  A    between atoms: _669  and  _671
REMARK  258  A    between atoms: _671  and  _672
REMARK  259  A    between atoms: _671  and  _674
REMARK  260  A    between atoms: _674  and  _675
REMARK                            x       y       z     vdW  Elec       q    Type
REMARK                         _______ _______ _______ _____ _____    ______ ____
ROOT
ATOM      1  O   HOH     1      -0.273  15.273   5.148  0.00  0.00    +0.000 OA
ENDROOT
TORSDOF 0
REMARK  Name = ../refined-set-2016/1b32/1b32_pocket.pdb
REMARK  260 active torsions:
REMARK  status: ('A' for Active; 'I' for Inactive)
REMARK    1  A    between atoms: _1  and  _3
REMARK    2  A    between atoms: _3  and  _4
REMARK    3  A    between atoms: _3  and  _6
REMARK    4  A    between atoms: _6  and  _7
REMARK    5  A    between atoms: _12  and  _14
REMARK    6  A    between atoms: _14  and  _15
REMARK    7  A    between atoms: _14  and  _17
REMARK    8  A    between atoms: _17  and  _18
REMARK    9  A    between atoms: _20  and  _22
REMARK   10  A    between atoms: _22  and  _23
REMARK   11  A    between atoms: _22  and  _25
REMARK   12  A    between atoms: _25  and  _26
REMARK   13  A    between atoms: _26  and  _27
REMARK   14  A    between atoms: _32  and  _34
REMARK   15  A    between atoms: _34  and  _35
REMARK   16  A    between atoms: _34  and  _37
REMARK   17  A    between atoms: _37  and  _38
REMARK   18  A    between atoms: _41  and  _43
REMARK   19  A    between atoms: _43  and  _44
REMARK   20  A    between atoms: _43  and  _46
REMARK   21  A    between atoms: _46  and  _47
REMARK   22  A    between atoms: _47  and  _48
REMARK   23  A    between atoms: _51  and  _53
REMARK   24  A    between atoms: _53  and  _54
REMARK   25  A    between atoms: _56  and  _58
REMARK   26  A    between atoms: _58  and  _59
REMARK   27  A    between atoms: _58  and  _61
REMARK   28  A    between atoms: _65  and  _66
REMARK   29  A    between atoms: _71  and  _73
REMARK   30  A    between atoms: _73  and  _74
REMARK   31  A    between atoms: _73  and  _76
REMARK   32  A    between atoms: _76  and  _77
REMARK   33  A    between atoms: _77  and  _78
REMARK   34  A    between atoms: _81  and  _83
REMARK   35  A    between atoms: _83  and  _84
REMARK   36  A    between atoms: _83  and  _86
REMARK   37  A    between atoms: _86  and  _87
REMARK   38  A    between atoms: _89  and  _91
REMARK   39  A    between atoms: _91  and  _92
REMARK   40  A    between atoms: _91  and  _94
REMARK   41  A    between atoms: _94  and  _95
REMARK   42  A    between atoms: _100  and  _102
REMARK   43  A    between atoms: _102  and  _103
REMARK   44  A    between atoms: _102  and  _105
REMARK   45  A    between atoms: _105  and  _106
REMARK   46  A    between atoms: _106  and  _107
REMARK   47  A    between atoms: _107  and  _108
REMARK   48  A    between atoms: _118  and  _119
REMARK   49  A    between atoms: _124  and  _126
REMARK   50  A    between atoms: _126  and  _127
REMARK   51  A    between atoms: _126  and  _129
REMARK   52  A    between atoms: _129  and  _130
REMARK   53  A    between atoms: _135  and  _136
REMARK   54  A    between atoms: _138  and  _140
REMARK   55  A    between atoms: _140  and  _141
REMARK   56  A    between atoms: _140  and  _143
REMARK   57  A    between atoms: _143  and  _144
REMARK   58  A    between atoms: _149  and  _150
REMARK   59  A    between atoms: _152  and  _154
REMARK   60  A    between atoms: _154  and  _155
REMARK   61  A    between atoms: _154  and  _157
REMARK   62  A    between atoms: _160  and  _162
REMARK   63  A    between atoms: _162  and  _163
REMARK   64  A    between atoms: _162  and  _165
REMARK   65  A    between atoms: _165  and  _166
REMARK   66  A    between atoms: _172  and  _173
REMARK   67  A    between atoms: _178  and  _180
REMARK   68  A    between atoms: _180  and  _181
REMARK   69  A    between atoms: _180  and  _183
REMARK   70  A    between atoms: _183  and  _184
REMARK   71  A    between atoms: _186  and  _188
REMARK   72  A    between atoms: _188  and  _189
REMARK   73  A    between atoms: _188  and  _191
REMARK   74  A    between atoms: _191  and  _192
REMARK   75  A    between atoms: _197  and  _198
REMARK   76  A    between atoms: _200  and  _202
REMARK   77  A    between atoms: _202  and  _203
REMARK   78  A    between atoms: _202  and  _205
REMARK   79  A    between atoms: _205  and  _206
REMARK   80  A    between atoms: _211  and  _213
REMARK   81  A    between atoms: _213  and  _214
REMARK   82  A    between atoms: _213  and  _216
REMARK   83  A    between atoms: _216  and  _217
REMARK   84  A    between atoms: _222  and  _224
REMARK   85  A    between atoms: _224  and  _225
REMARK   86  A    between atoms: _224  and  _227
REMARK   87  A    between atoms: _227  and  _228
REMARK   88  A    between atoms: _228  and  _229
REMARK   89  A    between atoms: _231  and  _233
REMARK   90  A    between atoms: _233  and  _234
REMARK   91  A    between atoms: _233  and  _236
REMARK   92  A    between atoms: _236  and  _237
REMARK   93  A    between atoms: _242  and  _243
REMARK   94  A    between atoms: _245  and  _247
REMARK   95  A    between atoms: _247  and  _248
REMARK   96  A    between atoms: _247  and  _250
REMARK   97  A    between atoms: _250  and  _251
REMARK   98  A    between atoms: _254  and  _256
REMARK   99  A    between atoms: _256  and  _257
REMARK  100  A    between atoms: _256  and  _259
REMARK  101  A    between atoms: _259  and  _260
REMARK  102  A    between atoms: _260  and  _477
REMARK  103  A    between atoms: _261  and  _263
REMARK  104  A    between atoms: _263  and  _264
REMARK  105  A    between atoms: _263  and  _266
REMARK  106  A    between atoms: _266  and  _267
REMARK  107  A    between atoms: _270  and  _272
REMARK  108  A    between atoms: _272  and  _273
REMARK  109  A    between atoms: _272  and  _275
REMARK  110  A    between atoms: _275  and  _276
REMARK  111  A    between atoms: _281  and  _282
REMARK  112  A    between atoms: _284  and  _286
REMARK  113  A    between atoms: _286  and  _287
REMARK  114  A    between atoms: _286  and  _289
REMARK  115  A    between atoms: _289  and  _290
REMARK  116  A    between atoms: _295  and  _296
REMARK  117  A    between atoms: _298  and  _300
REMARK  118  A    between atoms: _300  and  _301
REMARK  119  A    between atoms: _300  and  _303
REMARK  120  A    between atoms: _303  and  _304
REMARK  121  A    between atoms: _304  and  _305
REMARK  122  A    between atoms: _308  and  _310
REMARK  123  A    between atoms: _310  and  _311
REMARK  124  A    between atoms: _310  and  _313
REMARK  125  A    between atoms: _313  and  _314
REMARK  126  A    between atoms: _319  and  _320
REMARK  127  A    between atoms: _322  and  _324
REMARK  128  A    between atoms: _324  and  _325
REMARK  129  A    between atoms: _324  and  _327
REMARK  130  A    between atoms: _327  and  _328
REMARK  131  A    between atoms: _333  and  _335
REMARK  132  A    between atoms: _335  and  _336
REMARK  133  A    between atoms: _335  and  _338
REMARK  134  A    between atoms: _338  and  _339
REMARK  135  A    between atoms: _342  and  _344
REMARK  136  A    between atoms: _344  and  _345
REMARK  137  A    between atoms: _344  and  _347
REMARK  138  A    between atoms: _347  and  _348
REMARK  139  A    between atoms: _353  and  _355
REMARK  140  A    between atoms: _355  and  _356
REMARK  141  A    between atoms: _355  and  _358
REMARK  142  A    between atoms: _358  and  _359
REMARK  143  A    between atoms: _369  and  _371
REMARK  144  A    between atoms: _371  and  _372
REMARK  145  A    between atoms: _371  and  _374
REMARK  146  A    between atoms: _374  and  _375
REMARK  147  A    between atoms: _381  and  _383
REMARK  148  A    between atoms: _383  and  _384
REMARK  149  A    between atoms: _383  and  _386
REMARK  150  A    between atoms: _386  and  _387
REMARK  151  A    between atoms: _390  and  _392
REMARK  152  A    between atoms: _392  and  _393
REMARK  153  A    between atoms: _392  and  _395
REMARK  154  A    between atoms: _395  and  _396
REMARK  155  A    between atoms: _399  and  _401
REMARK  156  A    between atoms: _401  and  _402
REMARK  157  A    between atoms: _401  and  _404
REMARK  158  A    between atoms: _404  and  _405
REMARK  159  A    between atoms: _405  and  _406
REMARK  160  A    between atoms: _406  and  _407
REMARK  161  A    between atoms: _416  and  _418
REMARK  162  A    between atoms: _418  and  _419
REMARK  163  A    between atoms: _418  and  _421
REMARK  164  A    between atoms: _421  and  _422
REMARK  165  A    between atoms: _427  and  _429
REMARK  166  A    between atoms: _429  and  _430
REMARK  167  A    between atoms: _429  and  _432
REMARK  168  A    between atoms: _432  and  _433
REMARK  169  A    between atoms: _433  and  _434
REMARK  170  A    between atoms: _434  and  _435
REMARK  171  A    between atoms: _444  and  _446
REMARK  172  A    between atoms: _446  and  _447
REMARK  173  A    between atoms: _450  and  _452
REMARK  174  A    between atoms: _452  and  _453
REMARK  175  A    between atoms: _455  and  _457
REMARK  176  A    between atoms: _457  and  _458
REMARK  177  A    between atoms: _457  and  _460
REMARK  178  A    between atoms: _460  and  _461
REMARK  179  A    between atoms: _471  and  _473
REMARK  180  A    between atoms: _473  and  _474
REMARK  181  A    between atoms: _473  and  _476
REMARK  182  A    between atoms: _476  and  _477
REMARK  183  A    between atoms: _478  and  _480
REMARK  184  A    between atoms: _480  and  _481
REMARK  185  A    between atoms: _484  and  _486
REMARK  186  A    between atoms: _486  and  _487
REMARK  187  A    between atoms: _486  and  _489
REMARK  188  A    between atoms: _489  and  _490
REMARK  189  A    between atoms: _493  and  _495
REMARK  190  A    between atoms: _495  and  _496
REMARK  191  A    between atoms: _495  and  _498
REMARK  192  A    between atoms: _498  and  _499
REMARK  193  A    between atoms: _504  and  _505
REMARK  194  A    between atoms: _507  and  _509
REMARK  195  A    between atoms: _509  and  _510
REMARK  196  A    between atoms: _509  and  _512
REMARK  197  A    between atoms: _512  and  _513
REMARK  198  A    between atoms: _515  and  _517
REMARK  199  A    between atoms: _517  and  _518
REMARK  200  A    between atoms: _517  and  _520
REMARK  201  A    between atoms: _520  and  _521
REMARK  202  A    between atoms: _527  and  _529
REMARK  203  A    between atoms: _529  and  _530
REMARK  204  A    between atoms: _529  and  _532
REMARK  205  A    between atoms: _532  and  _533
REMARK  206  A    between atoms: _536  and  _538
REMARK  207  A    between atoms: _538  and  _539
REMARK  208  A    between atoms: _538  and  _541
REMARK  209  A    between atoms: _541  and  _542
REMARK  210  A    between atoms: _544  and  _546
REMARK  211  A    between atoms: _546  and  _547
REMARK  212  A    between atoms: _546  and  _549
REMARK  213  A    between atoms: _549  and  _550
REMARK  214  A    between atoms: _555  and  _557
REMARK  215  A    between atoms: _557  and  _558
REMARK  216  A    between atoms: _557  and  _560
REMARK  217  A    between atoms: _560  and  _561
REMARK  218  A    between atoms: _566  and  _568
REMARK  219  A    between atoms: _568  and  _569
REMARK  220  A    between atoms: _568  and  _571
REMARK  221  A    between atoms: _571  and  _572
REMARK  222  A    between atoms: _575  and  _577
REMARK  223  A    between atoms: _577  and  _578
REMARK  224  A    between atoms: _581  and  _583
REMARK  225  A    between atoms: _583  and  _584
REMARK  226  A    between atoms: _583  and  _586
REMARK  227  A    between atoms: _586  and  _587
REMARK  228  A    between atoms: _592  and  _593
REMARK  229  A    between atoms: _595  and  _597
REMARK  230  A    between atoms: _597  and  _598
REMARK  231  A    between atoms: _597  and  _600
REMARK  232  A    between atoms: _600  and  _601
REMARK  233  A    between atoms: _606  and  _607
REMARK  234  A    between atoms: _609  and  _611
REMARK  235  A    between atoms: _611  and  _612
REMARK  236  A    between atoms: _611  and  _614
REMARK  237  A    between atoms: _617  and  _619
REMARK  238  A    between atoms: _619  and  _620
REMARK  239  A    between atoms: _619  and  _622
REMARK  240  A    between atoms: _622  and  _623
REMARK  241  A    between atoms: _628  and  _630
REMARK  242  A    between atoms: _630  and  _631
REMARK  243  A    between atoms: _634  and  _636
REMARK  244  A    between atoms: _636  and  _637
REMARK  245  A    between atoms: _636  and  _639
REMARK  246  A    between atoms: _639  and  _640
REMARK  247  A    between atoms: _640  and  _641
REMARK  248  A    between atoms: _641  and  _642
REMARK  249  A    between atoms: _651  and  _653
REMARK  250  A    between atoms: _653  and  _654
REMARK  251  A    between atoms: _653  and  _656
REMARK  252  A    between atoms: _656  and  _657
REMARK  253  A    between atoms: _660  and  _662
REMARK  254  A    between atoms: _662  and  _663
REMARK  255  A    between atoms: _662  and  _665
REMARK  256  A    between atoms: _665  and  _666
REMARK  257  A    between atoms: _669  and  _671
REMARK  258  A    between atoms: _671  and  _672
REMARK  259  A    between atoms: _671  and  _674
REMARK  260  A    between atoms: _674  and  _675
REMARK                            x       y       z     vdW  Elec       q    Type
REMARK                         _______ _______ _______ _____ _____    ______ ____
ROOT
ATOM      1  O   HOH     1      -4.225  19.712  16.215  0.00  0.00    +0.000 OA
ENDROOT
TORSDOF 0
REMARK  Name = ../refined-set-2016/1b32/1b32_pocket.pdb
REMARK  260 active torsions:
REMARK  status: ('A' for Active; 'I' for Inactive)
REMARK    1  A    between atoms: _1  and  _3
REMARK    2  A    between atoms: _3  and  _4
REMARK    3  A    between atoms: _3  and  _6
REMARK    4  A    between atoms: _6  and  _7
REMARK    5  A    between atoms: _12  and  _14
REMARK    6  A    between atoms: _14  and  _15
REMARK    7  A    between atoms: _14  and  _17
REMARK    8  A    between atoms: _17  and  _18
REMARK    9  A    between atoms: _20  and  _22
REMARK   10  A    between atoms: _22  and  _23
REMARK   11  A    between atoms: _22  and  _25
REMARK   12  A    between atoms: _25  and  _26
REMARK   13  A    between atoms: _26  and  _27
REMARK   14  A    between atoms: _32  and  _34
REMARK   15  A    between atoms: _34  and  _35
REMARK   16  A    between atoms: _34  and  _37
REMARK   17  A    between atoms: _37  and  _38
REMARK   18  A    between atoms: _41  and  _43
REMARK   19  A    between atoms: _43  and  _44
REMARK   20  A    between atoms: _43  and  _46
REMARK   21  A    between atoms: _46  and  _47
REMARK   22  A    between atoms: _47  and  _48
REMARK   23  A    between atoms: _51  and  _53
REMARK   24  A    between atoms: _53  and  _54
REMARK   25  A    between atoms: _56  and  _58
REMARK   26  A    between atoms: _58  and  _59
REMARK   27  A    between atoms: _58  and  _61
REMARK   28  A    between atoms: _65  and  _66
REMARK   29  A    between atoms: _71  and  _73
REMARK   30  A    between atoms: _73  and  _74
REMARK   31  A    between atoms: _73  and  _76
REMARK   32  A    between atoms: _76  and  _77
REMARK   33  A    between atoms: _77  and  _78
REMARK   34  A    between atoms: _81  and  _83
REMARK   35  A    between atoms: _83  and  _84
REMARK   36  A    between atoms: _83  and  _86
REMARK   37  A    between atoms: _86  and  _87
REMARK   38  A    between atoms: _89  and  _91
REMARK   39  A    between atoms: _91  and  _92
REMARK   40  A    between atoms: _91  and  _94
REMARK   41  A    between atoms: _94  and  _95
REMARK   42  A    between atoms: _100  and  _102
REMARK   43  A    between atoms: _102  and  _103
REMARK   44  A    between atoms: _102  and  _105
REMARK   45  A    between atoms: _105  and  _106
REMARK   46  A    between atoms: _106  and  _107
REMARK   47  A    between atoms: _107  and  _108
REMARK   48  A    between atoms: _118  and  _119
REMARK   49  A    between atoms: _124  and  _126
REMARK   50  A    between atoms: _126  and  _127
REMARK   51  A    between atoms: _126  and  _129
REMARK   52  A    between atoms: _129  and  _130
REMARK   53  A    between atoms: _135  and  _136
REMARK   54  A    between atoms: _138  and  _140
REMARK   55  A    between atoms: _140  and  _141
REMARK   56  A    between atoms: _140  and  _143
REMARK   57  A    between atoms: _143  and  _144
REMARK   58  A    between atoms: _149  and  _150
REMARK   59  A    between atoms: _152  and  _154
REMARK   60  A    between atoms: _154  and  _155
REMARK   61  A    between atoms: _154  and  _157
REMARK   62  A    between atoms: _160  and  _162
REMARK   63  A    between atoms: _162  and  _163
REMARK   64  A    between atoms: _162  and  _165
REMARK   65  A    between atoms: _165  and  _166
REMARK   66  A    between atoms: _172  and  _173
REMARK   67  A    between atoms: _178  and  _180
REMARK   68  A    between atoms: _180  and  _181
REMARK   69  A    between atoms: _180  and  _183
REMARK   70  A    between atoms: _183  and  _184
REMARK   71  A    between atoms: _186  and  _188
REMARK   72  A    between atoms: _188  and  _189
REMARK   73  A    between atoms: _188  and  _191
REMARK   74  A    between atoms: _191  and  _192
REMARK   75  A    between atoms: _197  and  _198
REMARK   76  A    between atoms: _200  and  _202
REMARK   77  A    between atoms: _202  and  _203
REMARK   78  A    between atoms: _202  and  _205
REMARK   79  A    between atoms: _205  and  _206
REMARK   80  A    between atoms: _211  and  _213
REMARK   81  A    between atoms: _213  and  _214
REMARK   82  A    between atoms: _213  and  _216
REMARK   83  A    between atoms: _216  and  _217
REMARK   84  A    between atoms: _222  and  _224
REMARK   85  A    between atoms: _224  and  _225
REMARK   86  A    between atoms: _224  and  _227
REMARK   87  A    between atoms: _227  and  _228
REMARK   88  A    between atoms: _228  and  _229
REMARK   89  A    between atoms: _231  and  _233
REMARK   90  A    between atoms: _233  and  _234
REMARK   91  A    between atoms: _233  and  _236
REMARK   92  A    between atoms: _236  and  _237
REMARK   93  A    between atoms: _242  and  _243
REMARK   94  A    between atoms: _245  and  _247
REMARK   95  A    between atoms: _247  and  _248
REMARK   96  A    between atoms: _247  and  _250
REMARK   97  A    between atoms: _250  and  _251
REMARK   98  A    between atoms: _254  and  _256
REMARK   99  A    between atoms: _256  and  _257
REMARK  100  A    between atoms: _256  and  _259
REMARK  101  A    between atoms: _259  and  _260
REMARK  102  A    between atoms: _260  and  _477
REMARK  103  A    between atoms: _261  and  _263
REMARK  104  A    between atoms: _263  and  _264
REMARK  105  A    between atoms: _263  and  _266
REMARK  106  A    between atoms: _266  and  _267
REMARK  107  A    between atoms: _270  and  _272
REMARK  108  A    between atoms: _272  and  _273
REMARK  109  A    between atoms: _272  and  _275
REMARK  110  A    between atoms: _275  and  _276
REMARK  111  A    between atoms: _281  and  _282
REMARK  112  A    between atoms: _284  and  _286
REMARK  113  A    between atoms: _286  and  _287
REMARK  114  A    between atoms: _286  and  _289
REMARK  115  A    between atoms: _289  and  _290
REMARK  116  A    between atoms: _295  and  _296
REMARK  117  A    between atoms: _298  and  _300
REMARK  118  A    between atoms: _300  and  _301
REMARK  119  A    between atoms: _300  and  _303
REMARK  120  A    between atoms: _303  and  _304
REMARK  121  A    between atoms: _304  and  _305
REMARK  122  A    between atoms: _308  and  _310
REMARK  123  A    between atoms: _310  and  _311
REMARK  124  A    between atoms: _310  and  _313
REMARK  125  A    between atoms: _313  and  _314
REMARK  126  A    between atoms: _319  and  _320
REMARK  127  A    between atoms: _322  and  _324
REMARK  128  A    between atoms: _324  and  _325
REMARK  129  A    between atoms: _324  and  _327
REMARK  130  A    between atoms: _327  and  _328
REMARK  131  A    between atoms: _333  and  _335
REMARK  132  A    between atoms: _335  and  _336
REMARK  133  A    between atoms: _335  and  _338
REMARK  134  A    between atoms: _338  and  _339
REMARK  135  A    between atoms: _342  and  _344
REMARK  136  A    between atoms: _344  and  _345
REMARK  137  A    between atoms: _344  and  _347
REMARK  138  A    between atoms: _347  and  _348
REMARK  139  A    between atoms: _353  and  _355
REMARK  140  A    between atoms: _355  and  _356
REMARK  141  A    between atoms: _355  and  _358
REMARK  142  A    between atoms: _358  and  _359
REMARK  143  A    between atoms: _369  and  _371
REMARK  144  A    between atoms: _371  and  _372
REMARK  145  A    between atoms: _371  and  _374
REMARK  146  A    between atoms: _374  and  _375
REMARK  147  A    between atoms: _381  and  _383
REMARK  148  A    between atoms: _383  and  _384
REMARK  149  A    between atoms: _383  and  _386
REMARK  150  A    between atoms: _386  and  _387
REMARK  151  A    between atoms: _390  and  _392
REMARK  152  A    between atoms: _392  and  _393
REMARK  153  A    between atoms: _392  and  _395
REMARK  154  A    between atoms: _395  and  _396
REMARK  155  A    between atoms: _399  and  _401
REMARK  156  A    between atoms: _401  and  _402
REMARK  157  A    between atoms: _401  and  _404
REMARK  158  A    between atoms: _404  and  _405
REMARK  159  A    between atoms: _405  and  _406
REMARK  160  A    between atoms: _406  and  _407
REMARK  161  A    between atoms: _416  and  _418
REMARK  162  A    between atoms: _418  and  _419
REMARK  163  A    between atoms: _418  and  _421
REMARK  164  A    between atoms: _421  and  _422
REMARK  165  A    between atoms: _427  and  _429
REMARK  166  A    between atoms: _429  and  _430
REMARK  167  A    between atoms: _429  and  _432
REMARK  168  A    between atoms: _432  and  _433
REMARK  169  A    between atoms: _433  and  _434
REMARK  170  A    between atoms: _434  and  _435
REMARK  171  A    between atoms: _444  and  _446
REMARK  172  A    between atoms: _446  and  _447
REMARK  173  A    between atoms: _450  and  _452
REMARK  174  A    between atoms: _452  and  _453
REMARK  175  A    between atoms: _455  and  _457
REMARK  176  A    between atoms: _457  and  _458
REMARK  177  A    between atoms: _457  and  _460
REMARK  178  A    between atoms: _460  and  _461
REMARK  179  A    between atoms: _471  and  _473
REMARK  180  A    between atoms: _473  and  _474
REMARK  181  A    between atoms: _473  and  _476
REMARK  182  A    between atoms: _476  and  _477
REMARK  183  A    between atoms: _478  and  _480
REMARK  184  A    between atoms: _480  and  _481
REMARK  185  A    between atoms: _484  and  _486
REMARK  186  A    between atoms: _486  and  _487
REMARK  187  A    between atoms: _486  and  _489
REMARK  188  A    between atoms: _489  and  _490
REMARK  189  A    between atoms: _493  and  _495
REMARK  190  A    between atoms: _495  and  _496
REMARK  191  A    between atoms: _495  and  _498
REMARK  192  A    between atoms: _498  and  _499
REMARK  193  A    between atoms: _504  and  _505
REMARK  194  A    between atoms: _507  and  _509
REMARK  195  A    between atoms: _509  and  _510
REMARK  196  A    between atoms: _509  and  _512
REMARK  197  A    between atoms: _512  and  _513
REMARK  198  A    between atoms: _515  and  _517
REMARK  199  A    between atoms: _517  and  _518
REMARK  200  A    between atoms: _517  and  _520
REMARK  201  A    between atoms: _520  and  _521
REMARK  202  A    between atoms: _527  and  _529
REMARK  203  A    between atoms: _529  and  _530
REMARK  204  A    between atoms: _529  and  _532
REMARK  205  A    between atoms: _532  and  _533
REMARK  206  A    between atoms: _536  and  _538
REMARK  207  A    between atoms: _538  and  _539
REMARK  208  A    between atoms: _538  and  _541
REMARK  209  A    between atoms: _541  and  _542
REMARK  210  A    between atoms: _544  and  _546
REMARK  211  A    between atoms: _546  and  _547
REMARK  212  A    between atoms: _546  and  _549
REMARK  213  A    between atoms: _549  and  _550
REMARK  214  A    between atoms: _555  and  _557
REMARK  215  A    between atoms: _557  and  _558
REMARK  216  A    between atoms: _557  and  _560
REMARK  217  A    between atoms: _560  and  _561
REMARK  218  A    between atoms: _566  and  _568
REMARK  219  A    between atoms: _568  and  _569
REMARK  220  A    between atoms: _568  and  _571
REMARK  221  A    between atoms: _571  and  _572
REMARK  222  A    between atoms: _575  and  _577
REMARK  223  A    between atoms: _577  and  _578
REMARK  224  A    between atoms: _581  and  _583
REMARK  225  A    between atoms: _583  and  _584
REMARK  226  A    between atoms: _583  and  _586
REMARK  227  A    between atoms: _586  and  _587
REMARK  228  A    between atoms: _592  and  _593
REMARK  229  A    between atoms: _595  and  _597
REMARK  230  A    between atoms: _597  and  _598
REMARK  231  A    between atoms: _597  and  _600
REMARK  232  A    between atoms: _600  and  _601
REMARK  233  A    between atoms: _606  and  _607
REMARK  234  A    between atoms: _609  and  _611
REMARK  235  A    between atoms: _611  and  _612
REMARK  236  A    between atoms: _611  and  _614
REMARK  237  A    between atoms: _617  and  _619
REMARK  238  A    between atoms: _619  and  _620
REMARK  239  A    between atoms: _619  and  _622
REMARK  240  A    between atoms: _622  and  _623
REMARK  241  A    between atoms: _628  and  _630
REMARK  242  A    between atoms: _630  and  _631
REMARK  243  A    between atoms: _634  and  _636
REMARK  244  A    between atoms: _636  and  _637
REMARK  245  A    between atoms: _636  and  _639
REMARK  246  A    between atoms: _639  and  _640
REMARK  247  A    between atoms: _640  and  _641
REMARK  248  A    between atoms: _641  and  _642
REMARK  249  A    between atoms: _651  and  _653
REMARK  250  A    between atoms: _653  and  _654
REMARK  251  A    between atoms: _653  and  _656
REMARK  252  A    between atoms: _656  and  _657
REMARK  253  A    between atoms: _660  and  _662
REMARK  254  A    between atoms: _662  and  _663
REMARK  255  A    between atoms: _662  and  _665
REMARK  256  A    between atoms: _665  and  _666
REMARK  257  A    between atoms: _669  and  _671
REMARK  258  A    between atoms: _671  and  _672
REMARK  259  A    between atoms: _671  and  _674
REMARK  260  A    between atoms: _674  and  _675
REMARK                            x       y       z     vdW  Elec       q    Type
REMARK                         _______ _______ _______ _____ _____    ______ ____
ROOT
ATOM      1  O   HOH     1      -2.071  17.101   7.584  0.00  0.00    +0.000 OA
ENDROOT
TORSDOF 0
REMARK  Name = ../refined-set-2016/1b32/1b32_pocket.pdb
REMARK  260 active torsions:
REMARK  status: ('A' for Active; 'I' for Inactive)
REMARK    1  A    between atoms: _1  and  _3
REMARK    2  A    between atoms: _3  and  _4
REMARK    3  A    between atoms: _3  and  _6
REMARK    4  A    between atoms: _6  and  _7
REMARK    5  A    between atoms: _12  and  _14
REMARK    6  A    between atoms: _14  and  _15
REMARK    7  A    between atoms: _14  and  _17
REMARK    8  A    between atoms: _17  and  _18
REMARK    9  A    between atoms: _20  and  _22
REMARK   10  A    between atoms: _22  and  _23
REMARK   11  A    between atoms: _22  and  _25
REMARK   12  A    between atoms: _25  and  _26
REMARK   13  A    between atoms: _26  and  _27
REMARK   14  A    between atoms: _32  and  _34
REMARK   15  A    between atoms: _34  and  _35
REMARK   16  A    between atoms: _34  and  _37
REMARK   17  A    between atoms: _37  and  _38
REMARK   18  A    between atoms: _41  and  _43
REMARK   19  A    between atoms: _43  and  _44
REMARK   20  A    between atoms: _43  and  _46
REMARK   21  A    between atoms: _46  and  _47
REMARK   22  A    between atoms: _47  and  _48
REMARK   23  A    between atoms: _51  and  _53
REMARK   24  A    between atoms: _53  and  _54
REMARK   25  A    between atoms: _56  and  _58
REMARK   26  A    between atoms: _58  and  _59
REMARK   27  A    between atoms: _58  and  _61
REMARK   28  A    between atoms: _65  and  _66
REMARK   29  A    between atoms: _71  and  _73
REMARK   30  A    between atoms: _73  and  _74
REMARK   31  A    between atoms: _73  and  _76
REMARK   32  A    between atoms: _76  and  _77
REMARK   33  A    between atoms: _77  and  _78
REMARK   34  A    between atoms: _81  and  _83
REMARK   35  A    between atoms: _83  and  _84
REMARK   36  A    between atoms: _83  and  _86
REMARK   37  A    between atoms: _86  and  _87
REMARK   38  A    between atoms: _89  and  _91
REMARK   39  A    between atoms: _91  and  _92
REMARK   40  A    between atoms: _91  and  _94
REMARK   41  A    between atoms: _94  and  _95
REMARK   42  A    between atoms: _100  and  _102
REMARK   43  A    between atoms: _102  and  _103
REMARK   44  A    between atoms: _102  and  _105
REMARK   45  A    between atoms: _105  and  _106
REMARK   46  A    between atoms: _106  and  _107
REMARK   47  A    between atoms: _107  and  _108
REMARK   48  A    between atoms: _118  and  _119
REMARK   49  A    between atoms: _124  and  _126
REMARK   50  A    between atoms: _126  and  _127
REMARK   51  A    between atoms: _126  and  _129
REMARK   52  A    between atoms: _129  and  _130
REMARK   53  A    between atoms: _135  and  _136
REMARK   54  A    between atoms: _138  and  _140
REMARK   55  A    between atoms: _140  and  _141
REMARK   56  A    between atoms: _140  and  _143
REMARK   57  A    between atoms: _143  and  _144
REMARK   58  A    between atoms: _149  and  _150
REMARK   59  A    between atoms: _152  and  _154
REMARK   60  A    between atoms: _154  and  _155
REMARK   61  A    between atoms: _154  and  _157
REMARK   62  A    between atoms: _160  and  _162
REMARK   63  A    between atoms: _162  and  _163
REMARK   64  A    between atoms: _162  and  _165
REMARK   65  A    between atoms: _165  and  _166
REMARK   66  A    between atoms: _172  and  _173
REMARK   67  A    between atoms: _178  and  _180
REMARK   68  A    between atoms: _180  and  _181
REMARK   69  A    between atoms: _180  and  _183
REMARK   70  A    between atoms: _183  and  _184
REMARK   71  A    between atoms: _186  and  _188
REMARK   72  A    between atoms: _188  and  _189
REMARK   73  A    between atoms: _188  and  _191
REMARK   74  A    between atoms: _191  and  _192
REMARK   75  A    between atoms: _197  and  _198
REMARK   76  A    between atoms: _200  and  _202
REMARK   77  A    between atoms: _202  and  _203
REMARK   78  A    between atoms: _202  and  _205
REMARK   79  A    between atoms: _205  and  _206
REMARK   80  A    between atoms: _211  and  _213
REMARK   81  A    between atoms: _213  and  _214
REMARK   82  A    between atoms: _213  and  _216
REMARK   83  A    between atoms: _216  and  _217
REMARK   84  A    between atoms: _222  and  _224
REMARK   85  A    between atoms: _224  and  _225
REMARK   86  A    between atoms: _224  and  _227
REMARK   87  A    between atoms: _227  and  _228
REMARK   88  A    between atoms: _228  and  _229
REMARK   89  A    between atoms: _231  and  _233
REMARK   90  A    between atoms: _233  and  _234
REMARK   91  A    between atoms: _233  and  _236
REMARK   92  A    between atoms: _236  and  _237
REMARK   93  A    between atoms: _242  and  _243
REMARK   94  A    between atoms: _245  and  _247
REMARK   95  A    between atoms: _247  and  _248
REMARK   96  A    between atoms: _247  and  _250
REMARK   97  A    between atoms: _250  and  _251
REMARK   98  A    between atoms: _254  and  _256
REMARK   99  A    between atoms: _256  and  _257
REMARK  100  A    between atoms: _256  and  _259
REMARK  101  A    between atoms: _259  and  _260
REMARK  102  A    between atoms: _260  and  _477
REMARK  103  A    between atoms: _261  and  _263
REMARK  104  A    between atoms: _263  and  _264
REMARK  105  A    between atoms: _263  and  _266
REMARK  106  A    between atoms: _266  and  _267
REMARK  107  A    between atoms: _270  and  _272
REMARK  108  A    between atoms: _272  and  _273
REMARK  109  A    between atoms: _272  and  _275
REMARK  110  A    between atoms: _275  and  _276
REMARK  111  A    between atoms: _281  and  _282
REMARK  112  A    between atoms: _284  and  _286
REMARK  113  A    between atoms: _286  and  _287
REMARK  114  A    between atoms: _286  and  _289
REMARK  115  A    between atoms: _289  and  _290
REMARK  116  A    between atoms: _295  and  _296
REMARK  117  A    between atoms: _298  and  _300
REMARK  118  A    between atoms: _300  and  _301
REMARK  119  A    between atoms: _300  and  _303
REMARK  120  A    between atoms: _303  and  _304
REMARK  121  A    between atoms: _304  and  _305
REMARK  122  A    between atoms: _308  and  _310
REMARK  123  A    between atoms: _310  and  _311
REMARK  124  A    between atoms: _310  and  _313
REMARK  125  A    between atoms: _313  and  _314
REMARK  126  A    between atoms: _319  and  _320
REMARK  127  A    between atoms: _322  and  _324
REMARK  128  A    between atoms: _324  and  _325
REMARK  129  A    between atoms: _324  and  _327
REMARK  130  A    between atoms: _327  and  _328
REMARK  131  A    between atoms: _333  and  _335
REMARK  132  A    between atoms: _335  and  _336
REMARK  133  A    between atoms: _335  and  _338
REMARK  134  A    between atoms: _338  and  _339
REMARK  135  A    between atoms: _342  and  _344
REMARK  136  A    between atoms: _344  and  _345
REMARK  137  A    between atoms: _344  and  _347
REMARK  138  A    between atoms: _347  and  _348
REMARK  139  A    between atoms: _353  and  _355
REMARK  140  A    between atoms: _355  and  _356
REMARK  141  A    between atoms: _355  and  _358
REMARK  142  A    between atoms: _358  and  _359
REMARK  143  A    between atoms: _369  and  _371
REMARK  144  A    between atoms: _371  and  _372
REMARK  145  A    between atoms: _371  and  _374
REMARK  146  A    between atoms: _374  and  _375
REMARK  147  A    between atoms: _381  and  _383
REMARK  148  A    between atoms: _383  and  _384
REMARK  149  A    between atoms: _383  and  _386
REMARK  150  A    between atoms: _386  and  _387
REMARK  151  A    between atoms: _390  and  _392
REMARK  152  A    between atoms: _392  and  _393
REMARK  153  A    between atoms: _392  and  _395
REMARK  154  A    between atoms: _395  and  _396
REMARK  155  A    between atoms: _399  and  _401
REMARK  156  A    between atoms: _401  and  _402
REMARK  157  A    between atoms: _401  and  _404
REMARK  158  A    between atoms: _404  and  _405
REMARK  159  A    between atoms: _405  and  _406
REMARK  160  A    between atoms: _406  and  _407
REMARK  161  A    between atoms: _416  and  _418
REMARK  162  A    between atoms: _418  and  _419
REMARK  163  A    between atoms: _418  and  _421
REMARK  164  A    between atoms: _421  and  _422
REMARK  165  A    between atoms: _427  and  _429
REMARK  166  A    between atoms: _429  and  _430
REMARK  167  A    between atoms: _429  and  _432
REMARK  168  A    between atoms: _432  and  _433
REMARK  169  A    between atoms: _433  and  _434
REMARK  170  A    between atoms: _434  and  _435
REMARK  171  A    between atoms: _444  and  _446
REMARK  172  A    between atoms: _446  and  _447
REMARK  173  A    between atoms: _450  and  _452
REMARK  174  A    between atoms: _452  and  _453
REMARK  175  A    between atoms: _455  and  _457
REMARK  176  A    between atoms: _457  and  _458
REMARK  177  A    between atoms: _457  and  _460
REMARK  178  A    between atoms: _460  and  _461
REMARK  179  A    between atoms: _471  and  _473
REMARK  180  A    between atoms: _473  and  _474
REMARK  181  A    between atoms: _473  and  _476
REMARK  182  A    between atoms: _476  and  _477
REMARK  183  A    between atoms: _478  and  _480
REMARK  184  A    between atoms: _480  and  _481
REMARK  185  A    between atoms: _484  and  _486
REMARK  186  A    between atoms: _486  and  _487
REMARK  187  A    between atoms: _486  and  _489
REMARK  188  A    between atoms: _489  and  _490
REMARK  189  A    between atoms: _493  and  _495
REMARK  190  A    between atoms: _495  and  _496
REMARK  191  A    between atoms: _495  and  _498
REMARK  192  A    between atoms: _498  and  _499
REMARK  193  A    between atoms: _504  and  _505
REMARK  194  A    between atoms: _507  and  _509
REMARK  195  A    between atoms: _509  and  _510
REMARK  196  A    between atoms: _509  and  _512
REMARK  197  A    between atoms: _512  and  _513
REMARK  198  A    between atoms: _515  and  _517
REMARK  199  A    between atoms: _517  and  _518
REMARK  200  A    between atoms: _517  and  _520
REMARK  201  A    between atoms: _520  and  _521
REMARK  202  A    between atoms: _527  and  _529
REMARK  203  A    between atoms: _529  and  _530
REMARK  204  A    between atoms: _529  and  _532
REMARK  205  A    between atoms: _532  and  _533
REMARK  206  A    between atoms: _536  and  _538
REMARK  207  A    between atoms: _538  and  _539
REMARK  208  A    between atoms: _538  and  _541
REMARK  209  A    between atoms: _541  and  _542
REMARK  210  A    between atoms: _544  and  _546
REMARK  211  A    between atoms: _546  and  _547
REMARK  212  A    between atoms: _546  and  _549
REMARK  213  A    between atoms: _549  and  _550
REMARK  214  A    between atoms: _555  and  _557
REMARK  215  A    between atoms: _557  and  _558
REMARK  216  A    between atoms: _557  and  _560
REMARK  217  A    between atoms: _560  and  _561
REMARK  218  A    between atoms: _566  and  _568
REMARK  219  A    between atoms: _568  and  _569
REMARK  220  A    between atoms: _568  and  _571
REMARK  221  A    between atoms: _571  and  _572
REMARK  222  A    between atoms: _575  and  _577
REMARK  223  A    between atoms: _577  and  _578
REMARK  224  A    between atoms: _581  and  _583
REMARK  225  A    between atoms: _583  and  _584
REMARK  226  A    between atoms: _583  and  _586
REMARK  227  A    between atoms: _586  and  _587
REMARK  228  A    between atoms: _592  and  _593
REMARK  229  A    between atoms: _595  and  _597
REMARK  230  A    between atoms: _597  and  _598
REMARK  231  A    between atoms: _597  and  _600
REMARK  232  A    between atoms: _600  and  _601
REMARK  233  A    between atoms: _606  and  _607
REMARK  234  A    between atoms: _609  and  _611
REMARK  235  A    between atoms: _611  and  _612
REMARK  236  A    between atoms: _611  and  _614
REMARK  237  A    between atoms: _617  and  _619
REMARK  238  A    between atoms: _619  and  _620
REMARK  239  A    between atoms: _619  and  _622
REMARK  240  A    between atoms: _622  and  _623
REMARK  241  A    between atoms: _628  and  _630
REMARK  242  A    between atoms: _630  and  _631
REMARK  243  A    between atoms: _634  and  _636
REMARK  244  A    between atoms: _636  and  _637
REMARK  245  A    between atoms: _636  and  _639
REMARK  246  A    between atoms: _639  and  _640
REMARK  247  A    between atoms: _640  and  _641
REMARK  248  A    between atoms: _641  and  _642
REMARK  249  A    between atoms: _651  and  _653
REMARK  250  A    between atoms: _653  and  _654
REMARK  251  A    between atoms: _653  and  _656
REMARK  252  A    between atoms: _656  and  _657
REMARK  253  A    between atoms: _660  and  _662
REMARK  254  A    between atoms: _662  and  _663
REMARK  255  A    between atoms: _662  and  _665
REMARK  256  A    between atoms: _665  and  _666
REMARK  257  A    between atoms: _669  and  _671
REMARK  258  A    between atoms: _671  and  _672
REMARK  259  A    between atoms: _671  and  _674
REMARK  260  A    between atoms: _674  and  _675
REMARK                            x       y       z     vdW  Elec       q    Type
REMARK                         _______ _______ _______ _____ _____    ______ ____
ROOT
ATOM      1  O   HOH     1       1.826  14.605   8.430  0.00  0.00    +0.000 OA
ENDROOT
TORSDOF 0
REMARK  Name = ../refined-set-2016/1b32/1b32_pocket.pdb
REMARK  260 active torsions:
REMARK  status: ('A' for Active; 'I' for Inactive)
REMARK    1  A    between atoms: _1  and  _3
REMARK    2  A    between atoms: _3  and  _4
REMARK    3  A    between atoms: _3  and  _6
REMARK    4  A    between atoms: _6  and  _7
REMARK    5  A    between atoms: _12  and  _14
REMARK    6  A    between atoms: _14  and  _15
REMARK    7  A    between atoms: _14  and  _17
REMARK    8  A    between atoms: _17  and  _18
REMARK    9  A    between atoms: _20  and  _22
REMARK   10  A    between atoms: _22  and  _23
REMARK   11  A    between atoms: _22  and  _25
REMARK   12  A    between atoms: _25  and  _26
REMARK   13  A    between atoms: _26  and  _27
REMARK   14  A    between atoms: _32  and  _34
REMARK   15  A    between atoms: _34  and  _35
REMARK   16  A    between atoms: _34  and  _37
REMARK   17  A    between atoms: _37  and  _38
REMARK   18  A    between atoms: _41  and  _43
REMARK   19  A    between atoms: _43  and  _44
REMARK   20  A    between atoms: _43  and  _46
REMARK   21  A    between atoms: _46  and  _47
REMARK   22  A    between atoms: _47  and  _48
REMARK   23  A    between atoms: _51  and  _53
REMARK   24  A    between atoms: _53  and  _54
REMARK   25  A    between atoms: _56  and  _58
REMARK   26  A    between atoms: _58  and  _59
REMARK   27  A    between atoms: _58  and  _61
REMARK   28  A    between atoms: _65  and  _66
REMARK   29  A    between atoms: _71  and  _73
REMARK   30  A    between atoms: _73  and  _74
REMARK   31  A    between atoms: _73  and  _76
REMARK   32  A    between atoms: _76  and  _77
REMARK   33  A    between atoms: _77  and  _78
REMARK   34  A    between atoms: _81  and  _83
REMARK   35  A    between atoms: _83  and  _84
REMARK   36  A    between atoms: _83  and  _86
REMARK   37  A    between atoms: _86  and  _87
REMARK   38  A    between atoms: _89  and  _91
REMARK   39  A    between atoms: _91  and  _92
REMARK   40  A    between atoms: _91  and  _94
REMARK   41  A    between atoms: _94  and  _95
REMARK   42  A    between atoms: _100  and  _102
REMARK   43  A    between atoms: _102  and  _103
REMARK   44  A    between atoms: _102  and  _105
REMARK   45  A    between atoms: _105  and  _106
REMARK   46  A    between atoms: _106  and  _107
REMARK   47  A    between atoms: _107  and  _108
REMARK   48  A    between atoms: _118  and  _119
REMARK   49  A    between atoms: _124  and  _126
REMARK   50  A    between atoms: _126  and  _127
REMARK   51  A    between atoms: _126  and  _129
REMARK   52  A    between atoms: _129  and  _130
REMARK   53  A    between atoms: _135  and  _136
REMARK   54  A    between atoms: _138  and  _140
REMARK   55  A    between atoms: _140  and  _141
REMARK   56  A    between atoms: _140  and  _143
REMARK   57  A    between atoms: _143  and  _144
REMARK   58  A    between atoms: _149  and  _150
REMARK   59  A    between atoms: _152  and  _154
REMARK   60  A    between atoms: _154  and  _155
REMARK   61  A    between atoms: _154  and  _157
REMARK   62  A    between atoms: _160  and  _162
REMARK   63  A    between atoms: _162  and  _163
REMARK   64  A    between atoms: _162  and  _165
REMARK   65  A    between atoms: _165  and  _166
REMARK   66  A    between atoms: _172  and  _173
REMARK   67  A    between atoms: _178  and  _180
REMARK   68  A    between atoms: _180  and  _181
REMARK   69  A    between atoms: _180  and  _183
REMARK   70  A    between atoms: _183  and  _184
REMARK   71  A    between atoms: _186  and  _188
REMARK   72  A    between atoms: _188  and  _189
REMARK   73  A    between atoms: _188  and  _191
REMARK   74  A    between atoms: _191  and  _192
REMARK   75  A    between atoms: _197  and  _198
REMARK   76  A    between atoms: _200  and  _202
REMARK   77  A    between atoms: _202  and  _203
REMARK   78  A    between atoms: _202  and  _205
REMARK   79  A    between atoms: _205  and  _206
REMARK   80  A    between atoms: _211  and  _213
REMARK   81  A    between atoms: _213  and  _214
REMARK   82  A    between atoms: _213  and  _216
REMARK   83  A    between atoms: _216  and  _217
REMARK   84  A    between atoms: _222  and  _224
REMARK   85  A    between atoms: _224  and  _225
REMARK   86  A    between atoms: _224  and  _227
REMARK   87  A    between atoms: _227  and  _228
REMARK   88  A    between atoms: _228  and  _229
REMARK   89  A    between atoms: _231  and  _233
REMARK   90  A    between atoms: _233  and  _234
REMARK   91  A    between atoms: _233  and  _236
REMARK   92  A    between atoms: _236  and  _237
REMARK   93  A    between atoms: _242  and  _243
REMARK   94  A    between atoms: _245  and  _247
REMARK   95  A    between atoms: _247  and  _248
REMARK   96  A    between atoms: _247  and  _250
REMARK   97  A    between atoms: _250  and  _251
REMARK   98  A    between atoms: _254  and  _256
REMARK   99  A    between atoms: _256  and  _257
REMARK  100  A    between atoms: _256  and  _259
REMARK  101  A    between atoms: _259  and  _260
REMARK  102  A    between atoms: _260  and  _477
REMARK  103  A    between atoms: _261  and  _263
REMARK  104  A    between atoms: _263  and  _264
REMARK  105  A    between atoms: _263  and  _266
REMARK  106  A    between atoms: _266  and  _267
REMARK  107  A    between atoms: _270  and  _272
REMARK  108  A    between atoms: _272  and  _273
REMARK  109  A    between atoms: _272  and  _275
REMARK  110  A    between atoms: _275  and  _276
REMARK  111  A    between atoms: _281  and  _282
REMARK  112  A    between atoms: _284  and  _286
REMARK  113  A    between atoms: _286  and  _287
REMARK  114  A    between atoms: _286  and  _289
REMARK  115  A    between atoms: _289  and  _290
REMARK  116  A    between atoms: _295  and  _296
REMARK  117  A    between atoms: _298  and  _300
REMARK  118  A    between atoms: _300  and  _301
REMARK  119  A    between atoms: _300  and  _303
REMARK  120  A    between atoms: _303  and  _304
REMARK  121  A    between atoms: _304  and  _305
REMARK  122  A    between atoms: _308  and  _310
REMARK  123  A    between atoms: _310  and  _311
REMARK  124  A    between atoms: _310  and  _313
REMARK  125  A    between atoms: _313  and  _314
REMARK  126  A    between atoms: _319  and  _320
REMARK  127  A    between atoms: _322  and  _324
REMARK  128  A    between atoms: _324  and  _325
REMARK  129  A    between atoms: _324  and  _327
REMARK  130  A    between atoms: _327  and  _328
REMARK  131  A    between atoms: _333  and  _335
REMARK  132  A    between atoms: _335  and  _336
REMARK  133  A    between atoms: _335  and  _338
REMARK  134  A    between atoms: _338  and  _339
REMARK  135  A    between atoms: _342  and  _344
REMARK  136  A    between atoms: _344  and  _345
REMARK  137  A    between atoms: _344  and  _347
REMARK  138  A    between atoms: _347  and  _348
REMARK  139  A    between atoms: _353  and  _355
REMARK  140  A    between atoms: _355  and  _356
REMARK  141  A    between atoms: _355  and  _358
REMARK  142  A    between atoms: _358  and  _359
REMARK  143  A    between atoms: _369  and  _371
REMARK  144  A    between atoms: _371  and  _372
REMARK  145  A    between atoms: _371  and  _374
REMARK  146  A    between atoms: _374  and  _375
REMARK  147  A    between atoms: _381  and  _383
REMARK  148  A    between atoms: _383  and  _384
REMARK  149  A    between atoms: _383  and  _386
REMARK  150  A    between atoms: _386  and  _387
REMARK  151  A    between atoms: _390  and  _392
REMARK  152  A    between atoms: _392  and  _393
REMARK  153  A    between atoms: _392  and  _395
REMARK  154  A    between atoms: _395  and  _396
REMARK  155  A    between atoms: _399  and  _401
REMARK  156  A    between atoms: _401  and  _402
REMARK  157  A    between atoms: _401  and  _404
REMARK  158  A    between atoms: _404  and  _405
REMARK  159  A    between atoms: _405  and  _406
REMARK  160  A    between atoms: _406  and  _407
REMARK  161  A    between atoms: _416  and  _418
REMARK  162  A    between atoms: _418  and  _419
REMARK  163  A    between atoms: _418  and  _421
REMARK  164  A    between atoms: _421  and  _422
REMARK  165  A    between atoms: _427  and  _429
REMARK  166  A    between atoms: _429  and  _430
REMARK  167  A    between atoms: _429  and  _432
REMARK  168  A    between atoms: _432  and  _433
REMARK  169  A    between atoms: _433  and  _434
REMARK  170  A    between atoms: _434  and  _435
REMARK  171  A    between atoms: _444  and  _446
REMARK  172  A    between atoms: _446  and  _447
REMARK  173  A    between atoms: _450  and  _452
REMARK  174  A    between atoms: _452  and  _453
REMARK  175  A    between atoms: _455  and  _457
REMARK  176  A    between atoms: _457  and  _458
REMARK  177  A    between atoms: _457  and  _460
REMARK  178  A    between atoms: _460  and  _461
REMARK  179  A    between atoms: _471  and  _473
REMARK  180  A    between atoms: _473  and  _474
REMARK  181  A    between atoms: _473  and  _476
REMARK  182  A    between atoms: _476  and  _477
REMARK  183  A    between atoms: _478  and  _480
REMARK  184  A    between atoms: _480  and  _481
REMARK  185  A    between atoms: _484  and  _486
REMARK  186  A    between atoms: _486  and  _487
REMARK  187  A    between atoms: _486  and  _489
REMARK  188  A    between atoms: _489  and  _490
REMARK  189  A    between atoms: _493  and  _495
REMARK  190  A    between atoms: _495  and  _496
REMARK  191  A    between atoms: _495  and  _498
REMARK  192  A    between atoms: _498  and  _499
REMARK  193  A    between atoms: _504  and  _505
REMARK  194  A    between atoms: _507  and  _509
REMARK  195  A    between atoms: _509  and  _510
REMARK  196  A    between atoms: _509  and  _512
REMARK  197  A    between atoms: _512  and  _513
REMARK  198  A    between atoms: _515  and  _517
REMARK  199  A    between atoms: _517  and  _518
REMARK  200  A    between atoms: _517  and  _520
REMARK  201  A    between atoms: _520  and  _521
REMARK  202  A    between atoms: _527  and  _529
REMARK  203  A    between atoms: _529  and  _530
REMARK  204  A    between atoms: _529  and  _532
REMARK  205  A    between atoms: _532  and  _533
REMARK  206  A    between atoms: _536  and  _538
REMARK  207  A    between atoms: _538  and  _539
REMARK  208  A    between atoms: _538  and  _541
REMARK  209  A    between atoms: _541  and  _542
REMARK  210  A    between atoms: _544  and  _546
REMARK  211  A    between atoms: _546  and  _547
REMARK  212  A    between atoms: _546  and  _549
REMARK  213  A    between atoms: _549  and  _550
REMARK  214  A    between atoms: _555  and  _557
REMARK  215  A    between atoms: _557  and  _558
REMARK  216  A    between atoms: _557  and  _560
REMARK  217  A    between atoms: _560  and  _561
REMARK  218  A    between atoms: _566  and  _568
REMARK  219  A    between atoms: _568  and  _569
REMARK  220  A    between atoms: _568  and  _571
REMARK  221  A    between atoms: _571  and  _572
REMARK  222  A    between atoms: _575  and  _577
REMARK  223  A    between atoms: _577  and  _578
REMARK  224  A    between atoms: _581  and  _583
REMARK  225  A    between atoms: _583  and  _584
REMARK  226  A    between atoms: _583  and  _586
REMARK  227  A    between atoms: _586  and  _587
REMARK  228  A    between atoms: _592  and  _593
REMARK  229  A    between atoms: _595  and  _597
REMARK  230  A    between atoms: _597  and  _598
REMARK  231  A    between atoms: _597  and  _600
REMARK  232  A    between atoms: _600  and  _601
REMARK  233  A    between atoms: _606  and  _607
REMARK  234  A    between atoms: _609  and  _611
REMARK  235  A    between atoms: _611  and  _612
REMARK  236  A    between atoms: _611  and  _614
REMARK  237  A    between atoms: _617  and  _619
REMARK  238  A    between atoms: _619  and  _620
REMARK  239  A    between atoms: _619  and  _622
REMARK  240  A    between atoms: _622  and  _623
REMARK  241  A    between atoms: _628  and  _630
REMARK  242  A    between atoms: _630  and  _631
REMARK  243  A    between atoms: _634  and  _636
REMARK  244  A    between atoms: _636  and  _637
REMARK  245  A    between atoms: _636  and  _639
REMARK  246  A    between atoms: _639  and  _640
REMARK  247  A    between atoms: _640  and  _641
REMARK  248  A    between atoms: _641  and  _642
REMARK  249  A    between atoms: _651  and  _653
REMARK  250  A    between atoms: _653  and  _654
REMARK  251  A    between atoms: _653  and  _656
REMARK  252  A    between atoms: _656  and  _657
REMARK  253  A    between atoms: _660  and  _662
REMARK  254  A    between atoms: _662  and  _663
REMARK  255  A    between atoms: _662  and  _665
REMARK  256  A    between atoms: _665  and  _666
REMARK  257  A    between atoms: _669  and  _671
REMARK  258  A    between atoms: _671  and  _672
REMARK  259  A    between atoms: _671  and  _674
REMARK  260  A    between atoms: _674  and  _675
REMARK                            x       y       z     vdW  Elec       q    Type
REMARK                         _______ _______ _______ _____ _____    ______ ____
ROOT
ATOM      1  O   HOH     1       5.514  20.126  25.242  0.00  0.00    +0.000 OA
ENDROOT
TORSDOF 0
REMARK  Name = ../refined-set-2016/1b32/1b32_pocket.pdb
REMARK  260 active torsions:
REMARK  status: ('A' for Active; 'I' for Inactive)
REMARK    1  A    between atoms: _1  and  _3
REMARK    2  A    between atoms: _3  and  _4
REMARK    3  A    between atoms: _3  and  _6
REMARK    4  A    between atoms: _6  and  _7
REMARK    5  A    between atoms: _12  and  _14
REMARK    6  A    between atoms: _14  and  _15
REMARK    7  A    between atoms: _14  and  _17
REMARK    8  A    between atoms: _17  and  _18
REMARK    9  A    between atoms: _20  and  _22
REMARK   10  A    between atoms: _22  and  _23
REMARK   11  A    between atoms: _22  and  _25
REMARK   12  A    between atoms: _25  and  _26
REMARK   13  A    between atoms: _26  and  _27
REMARK   14  A    between atoms: _32  and  _34
REMARK   15  A    between atoms: _34  and  _35
REMARK   16  A    between atoms: _34  and  _37
REMARK   17  A    between atoms: _37  and  _38
REMARK   18  A    between atoms: _41  and  _43
REMARK   19  A    between atoms: _43  and  _44
REMARK   20  A    between atoms: _43  and  _46
REMARK   21  A    between atoms: _46  and  _47
REMARK   22  A    between atoms: _47  and  _48
REMARK   23  A    between atoms: _51  and  _53
REMARK   24  A    between atoms: _53  and  _54
REMARK   25  A    between atoms: _56  and  _58
REMARK   26  A    between atoms: _58  and  _59
REMARK   27  A    between atoms: _58  and  _61
REMARK   28  A    between atoms: _65  and  _66
REMARK   29  A    between atoms: _71  and  _73
REMARK   30  A    between atoms: _73  and  _74
REMARK   31  A    between atoms: _73  and  _76
REMARK   32  A    between atoms: _76  and  _77
REMARK   33  A    between atoms: _77  and  _78
REMARK   34  A    between atoms: _81  and  _83
REMARK   35  A    between atoms: _83  and  _84
REMARK   36  A    between atoms: _83  and  _86
REMARK   37  A    between atoms: _86  and  _87
REMARK   38  A    between atoms: _89  and  _91
REMARK   39  A    between atoms: _91  and  _92
REMARK   40  A    between atoms: _91  and  _94
REMARK   41  A    between atoms: _94  and  _95
REMARK   42  A    between atoms: _100  and  _102
REMARK   43  A    between atoms: _102  and  _103
REMARK   44  A    between atoms: _102  and  _105
REMARK   45  A    between atoms: _105  and  _106
REMARK   46  A    between atoms: _106  and  _107
REMARK   47  A    between atoms: _107  and  _108
REMARK   48  A    between atoms: _118  and  _119
REMARK   49  A    between atoms: _124  and  _126
REMARK   50  A    between atoms: _126  and  _127
REMARK   51  A    between atoms: _126  and  _129
REMARK   52  A    between atoms: _129  and  _130
REMARK   53  A    between atoms: _135  and  _136
REMARK   54  A    between atoms: _138  and  _140
REMARK   55  A    between atoms: _140  and  _141
REMARK   56  A    between atoms: _140  and  _143
REMARK   57  A    between atoms: _143  and  _144
REMARK   58  A    between atoms: _149  and  _150
REMARK   59  A    between atoms: _152  and  _154
REMARK   60  A    between atoms: _154  and  _155
REMARK   61  A    between atoms: _154  and  _157
REMARK   62  A    between atoms: _160  and  _162
REMARK   63  A    between atoms: _162  and  _163
REMARK   64  A    between atoms: _162  and  _165
REMARK   65  A    between atoms: _165  and  _166
REMARK   66  A    between atoms: _172  and  _173
REMARK   67  A    between atoms: _178  and  _180
REMARK   68  A    between atoms: _180  and  _181
REMARK   69  A    between atoms: _180  and  _183
REMARK   70  A    between atoms: _183  and  _184
REMARK   71  A    between atoms: _186  and  _188
REMARK   72  A    between atoms: _188  and  _189
REMARK   73  A    between atoms: _188  and  _191
REMARK   74  A    between atoms: _191  and  _192
REMARK   75  A    between atoms: _197  and  _198
REMARK   76  A    between atoms: _200  and  _202
REMARK   77  A    between atoms: _202  and  _203
REMARK   78  A    between atoms: _202  and  _205
REMARK   79  A    between atoms: _205  and  _206
REMARK   80  A    between atoms: _211  and  _213
REMARK   81  A    between atoms: _213  and  _214
REMARK   82  A    between atoms: _213  and  _216
REMARK   83  A    between atoms: _216  and  _217
REMARK   84  A    between atoms: _222  and  _224
REMARK   85  A    between atoms: _224  and  _225
REMARK   86  A    between atoms: _224  and  _227
REMARK   87  A    between atoms: _227  and  _228
REMARK   88  A    between atoms: _228  and  _229
REMARK   89  A    between atoms: _231  and  _233
REMARK   90  A    between atoms: _233  and  _234
REMARK   91  A    between atoms: _233  and  _236
REMARK   92  A    between atoms: _236  and  _237
REMARK   93  A    between atoms: _242  and  _243
REMARK   94  A    between atoms: _245  and  _247
REMARK   95  A    between atoms: _247  and  _248
REMARK   96  A    between atoms: _247  and  _250
REMARK   97  A    between atoms: _250  and  _251
REMARK   98  A    between atoms: _254  and  _256
REMARK   99  A    between atoms: _256  and  _257
REMARK  100  A    between atoms: _256  and  _259
REMARK  101  A    between atoms: _259  and  _260
REMARK  102  A    between atoms: _260  and  _477
REMARK  103  A    between atoms: _261  and  _263
REMARK  104  A    between atoms: _263  and  _264
REMARK  105  A    between atoms: _263  and  _266
REMARK  106  A    between atoms: _266  and  _267
REMARK  107  A    between atoms: _270  and  _272
REMARK  108  A    between atoms: _272  and  _273
REMARK  109  A    between atoms: _272  and  _275
REMARK  110  A    between atoms: _275  and  _276
REMARK  111  A    between atoms: _281  and  _282
REMARK  112  A    between atoms: _284  and  _286
REMARK  113  A    between atoms: _286  and  _287
REMARK  114  A    between atoms: _286  and  _289
REMARK  115  A    between atoms: _289  and  _290
REMARK  116  A    between atoms: _295  and  _296
REMARK  117  A    between atoms: _298  and  _300
REMARK  118  A    between atoms: _300  and  _301
REMARK  119  A    between atoms: _300  and  _303
REMARK  120  A    between atoms: _303  and  _304
REMARK  121  A    between atoms: _304  and  _305
REMARK  122  A    between atoms: _308  and  _310
REMARK  123  A    between atoms: _310  and  _311
REMARK  124  A    between atoms: _310  and  _313
REMARK  125  A    between atoms: _313  and  _314
REMARK  126  A    between atoms: _319  and  _320
REMARK  127  A    between atoms: _322  and  _324
REMARK  128  A    between atoms: _324  and  _325
REMARK  129  A    between atoms: _324  and  _327
REMARK  130  A    between atoms: _327  and  _328
REMARK  131  A    between atoms: _333  and  _335
REMARK  132  A    between atoms: _335  and  _336
REMARK  133  A    between atoms: _335  and  _338
REMARK  134  A    between atoms: _338  and  _339
REMARK  135  A    between atoms: _342  and  _344
REMARK  136  A    between atoms: _344  and  _345
REMARK  137  A    between atoms: _344  and  _347
REMARK  138  A    between atoms: _347  and  _348
REMARK  139  A    between atoms: _353  and  _355
REMARK  140  A    between atoms: _355  and  _356
REMARK  141  A    between atoms: _355  and  _358
REMARK  142  A    between atoms: _358  and  _359
REMARK  143  A    between atoms: _369  and  _371
REMARK  144  A    between atoms: _371  and  _372
REMARK  145  A    between atoms: _371  and  _374
REMARK  146  A    between atoms: _374  and  _375
REMARK  147  A    between atoms: _381  and  _383
REMARK  148  A    between atoms: _383  and  _384
REMARK  149  A    between atoms: _383  and  _386
REMARK  150  A    between atoms: _386  and  _387
REMARK  151  A    between atoms: _390  and  _392
REMARK  152  A    between atoms: _392  and  _393
REMARK  153  A    between atoms: _392  and  _395
REMARK  154  A    between atoms: _395  and  _396
REMARK  155  A    between atoms: _399  and  _401
REMARK  156  A    between atoms: _401  and  _402
REMARK  157  A    between atoms: _401  and  _404
REMARK  158  A    between atoms: _404  and  _405
REMARK  159  A    between atoms: _405  and  _406
REMARK  160  A    between atoms: _406  and  _407
REMARK  161  A    between atoms: _416  and  _418
REMARK  162  A    between atoms: _418  and  _419
REMARK  163  A    between atoms: _418  and  _421
REMARK  164  A    between atoms: _421  and  _422
REMARK  165  A    between atoms: _427  and  _429
REMARK  166  A    between atoms: _429  and  _430
REMARK  167  A    between atoms: _429  and  _432
REMARK  168  A    between atoms: _432  and  _433
REMARK  169  A    between atoms: _433  and  _434
REMARK  170  A    between atoms: _434  and  _435
REMARK  171  A    between atoms: _444  and  _446
REMARK  172  A    between atoms: _446  and  _447
REMARK  173  A    between atoms: _450  and  _452
REMARK  174  A    between atoms: _452  and  _453
REMARK  175  A    between atoms: _455  and  _457
REMARK  176  A    between atoms: _457  and  _458
REMARK  177  A    between atoms: _457  and  _460
REMARK  178  A    between atoms: _460  and  _461
REMARK  179  A    between atoms: _471  and  _473
REMARK  180  A    between atoms: _473  and  _474
REMARK  181  A    between atoms: _473  and  _476
REMARK  182  A    between atoms: _476  and  _477
REMARK  183  A    between atoms: _478  and  _480
REMARK  184  A    between atoms: _480  and  _481
REMARK  185  A    between atoms: _484  and  _486
REMARK  186  A    between atoms: _486  and  _487
REMARK  187  A    between atoms: _486  and  _489
REMARK  188  A    between atoms: _489  and  _490
REMARK  189  A    between atoms: _493  and  _495
REMARK  190  A    between atoms: _495  and  _496
REMARK  191  A    between atoms: _495  and  _498
REMARK  192  A    between atoms: _498  and  _499
REMARK  193  A    between atoms: _504  and  _505
REMARK  194  A    between atoms: _507  and  _509
REMARK  195  A    between atoms: _509  and  _510
REMARK  196  A    between atoms: _509  and  _512
REMARK  197  A    between atoms: _512  and  _513
REMARK  198  A    between atoms: _515  and  _517
REMARK  199  A    between atoms: _517  and  _518
REMARK  200  A    between atoms: _517  and  _520
REMARK  201  A    between atoms: _520  and  _521
REMARK  202  A    between atoms: _527  and  _529
REMARK  203  A    between atoms: _529  and  _530
REMARK  204  A    between atoms: _529  and  _532
REMARK  205  A    between atoms: _532  and  _533
REMARK  206  A    between atoms: _536  and  _538
REMARK  207  A    between atoms: _538  and  _539
REMARK  208  A    between atoms: _538  and  _541
REMARK  209  A    between atoms: _541  and  _542
REMARK  210  A    between atoms: _544  and  _546
REMARK  211  A    between atoms: _546  and  _547
REMARK  212  A    between atoms: _546  and  _549
REMARK  213  A    between atoms: _549  and  _550
REMARK  214  A    between atoms: _555  and  _557
REMARK  215  A    between atoms: _557  and  _558
REMARK  216  A    between atoms: _557  and  _560
REMARK  217  A    between atoms: _560  and  _561
REMARK  218  A    between atoms: _566  and  _568
REMARK  219  A    between atoms: _568  and  _569
REMARK  220  A    between atoms: _568  and  _571
REMARK  221  A    between atoms: _571  and  _572
REMARK  222  A    between atoms: _575  and  _577
REMARK  223  A    between atoms: _577  and  _578
REMARK  224  A    between atoms: _581  and  _583
REMARK  225  A    between atoms: _583  and  _584
REMARK  226  A    between atoms: _583  and  _586
REMARK  227  A    between atoms: _586  and  _587
REMARK  228  A    between atoms: _592  and  _593
REMARK  229  A    between atoms: _595  and  _597
REMARK  230  A    between atoms: _597  and  _598
REMARK  231  A    between atoms: _597  and  _600
REMARK  232  A    between atoms: _600  and  _601
REMARK  233  A    between atoms: _606  and  _607
REMARK  234  A    between atoms: _609  and  _611
REMARK  235  A    between atoms: _611  and  _612
REMARK  236  A    between atoms: _611  and  _614
REMARK  237  A    between atoms: _617  and  _619
REMARK  238  A    between atoms: _619  and  _620
REMARK  239  A    between atoms: _619  and  _622
REMARK  240  A    between atoms: _622  and  _623
REMARK  241  A    between atoms: _628  and  _630
REMARK  242  A    between atoms: _630  and  _631
REMARK  243  A    between atoms: _634  and  _636
REMARK  244  A    between atoms: _636  and  _637
REMARK  245  A    between atoms: _636  and  _639
REMARK  246  A    between atoms: _639  and  _640
REMARK  247  A    between atoms: _640  and  _641
REMARK  248  A    between atoms: _641  and  _642
REMARK  249  A    between atoms: _651  and  _653
REMARK  250  A    between atoms: _653  and  _654
REMARK  251  A    between atoms: _653  and  _656
REMARK  252  A    between atoms: _656  and  _657
REMARK  253  A    between atoms: _660  and  _662
REMARK  254  A    between atoms: _662  and  _663
REMARK  255  A    between atoms: _662  and  _665
REMARK  256  A    between atoms: _665  and  _666
REMARK  257  A    between atoms: _669  and  _671
REMARK  258  A    between atoms: _671  and  _672
REMARK  259  A    between atoms: _671  and  _674
REMARK  260  A    between atoms: _674  and  _675
REMARK                            x       y       z     vdW  Elec       q    Type
REMARK                         _______ _______ _______ _____ _____    ______ ____
ROOT
ATOM      1  O   HOH     1      10.249  15.865   4.886  0.00  0.00    +0.000 OA
ENDROOT
TORSDOF 0
REMARK  Name = ../refined-set-2016/1b32/1b32_pocket.pdb
REMARK  260 active torsions:
REMARK  status: ('A' for Active; 'I' for Inactive)
REMARK    1  A    between atoms: _1  and  _3
REMARK    2  A    between atoms: _3  and  _4
REMARK    3  A    between atoms: _3  and  _6
REMARK    4  A    between atoms: _6  and  _7
REMARK    5  A    between atoms: _12  and  _14
REMARK    6  A    between atoms: _14  and  _15
REMARK    7  A    between atoms: _14  and  _17
REMARK    8  A    between atoms: _17  and  _18
REMARK    9  A    between atoms: _20  and  _22
REMARK   10  A    between atoms: _22  and  _23
REMARK   11  A    between atoms: _22  and  _25
REMARK   12  A    between atoms: _25  and  _26
REMARK   13  A    between atoms: _26  and  _27
REMARK   14  A    between atoms: _32  and  _34
REMARK   15  A    between atoms: _34  and  _35
REMARK   16  A    between atoms: _34  and  _37
REMARK   17  A    between atoms: _37  and  _38
REMARK   18  A    between atoms: _41  and  _43
REMARK   19  A    between atoms: _43  and  _44
REMARK   20  A    between atoms: _43  and  _46
REMARK   21  A    between atoms: _46  and  _47
REMARK   22  A    between atoms: _47  and  _48
REMARK   23  A    between atoms: _51  and  _53
REMARK   24  A    between atoms: _53  and  _54
REMARK   25  A    between atoms: _56  and  _58
REMARK   26  A    between atoms: _58  and  _59
REMARK   27  A    between atoms: _58  and  _61
REMARK   28  A    between atoms: _65  and  _66
REMARK   29  A    between atoms: _71  and  _73
REMARK   30  A    between atoms: _73  and  _74
REMARK   31  A    between atoms: _73  and  _76
REMARK   32  A    between atoms: _76  and  _77
REMARK   33  A    between atoms: _77  and  _78
REMARK   34  A    between atoms: _81  and  _83
REMARK   35  A    between atoms: _83  and  _84
REMARK   36  A    between atoms: _83  and  _86
REMARK   37  A    between atoms: _86  and  _87
REMARK   38  A    between atoms: _89  and  _91
REMARK   39  A    between atoms: _91  and  _92
REMARK   40  A    between atoms: _91  and  _94
REMARK   41  A    between atoms: _94  and  _95
REMARK   42  A    between atoms: _100  and  _102
REMARK   43  A    between atoms: _102  and  _103
REMARK   44  A    between atoms: _102  and  _105
REMARK   45  A    between atoms: _105  and  _106
REMARK   46  A    between atoms: _106  and  _107
REMARK   47  A    between atoms: _107  and  _108
REMARK   48  A    between atoms: _118  and  _119
REMARK   49  A    between atoms: _124  and  _126
REMARK   50  A    between atoms: _126  and  _127
REMARK   51  A    between atoms: _126  and  _129
REMARK   52  A    between atoms: _129  and  _130
REMARK   53  A    between atoms: _135  and  _136
REMARK   54  A    between atoms: _138  and  _140
REMARK   55  A    between atoms: _140  and  _141
REMARK   56  A    between atoms: _140  and  _143
REMARK   57  A    between atoms: _143  and  _144
REMARK   58  A    between atoms: _149  and  _150
REMARK   59  A    between atoms: _152  and  _154
REMARK   60  A    between atoms: _154  and  _155
REMARK   61  A    between atoms: _154  and  _157
REMARK   62  A    between atoms: _160  and  _162
REMARK   63  A    between atoms: _162  and  _163
REMARK   64  A    between atoms: _162  and  _165
REMARK   65  A    between atoms: _165  and  _166
REMARK   66  A    between atoms: _172  and  _173
REMARK   67  A    between atoms: _178  and  _180
REMARK   68  A    between atoms: _180  and  _181
REMARK   69  A    between atoms: _180  and  _183
REMARK   70  A    between atoms: _183  and  _184
REMARK   71  A    between atoms: _186  and  _188
REMARK   72  A    between atoms: _188  and  _189
REMARK   73  A    between atoms: _188  and  _191
REMARK   74  A    between atoms: _191  and  _192
REMARK   75  A    between atoms: _197  and  _198
REMARK   76  A    between atoms: _200  and  _202
REMARK   77  A    between atoms: _202  and  _203
REMARK   78  A    between atoms: _202  and  _205
REMARK   79  A    between atoms: _205  and  _206
REMARK   80  A    between atoms: _211  and  _213
REMARK   81  A    between atoms: _213  and  _214
REMARK   82  A    between atoms: _213  and  _216
REMARK   83  A    between atoms: _216  and  _217
REMARK   84  A    between atoms: _222  and  _224
REMARK   85  A    between atoms: _224  and  _225
REMARK   86  A    between atoms: _224  and  _227
REMARK   87  A    between atoms: _227  and  _228
REMARK   88  A    between atoms: _228  and  _229
REMARK   89  A    between atoms: _231  and  _233
REMARK   90  A    between atoms: _233  and  _234
REMARK   91  A    between atoms: _233  and  _236
REMARK   92  A    between atoms: _236  and  _237
REMARK   93  A    between atoms: _242  and  _243
REMARK   94  A    between atoms: _245  and  _247
REMARK   95  A    between atoms: _247  and  _248
REMARK   96  A    between atoms: _247  and  _250
REMARK   97  A    between atoms: _250  and  _251
REMARK   98  A    between atoms: _254  and  _256
REMARK   99  A    between atoms: _256  and  _257
REMARK  100  A    between atoms: _256  and  _259
REMARK  101  A    between atoms: _259  and  _260
REMARK  102  A    between atoms: _260  and  _477
REMARK  103  A    between atoms: _261  and  _263
REMARK  104  A    between atoms: _263  and  _264
REMARK  105  A    between atoms: _263  and  _266
REMARK  106  A    between atoms: _266  and  _267
REMARK  107  A    between atoms: _270  and  _272
REMARK  108  A    between atoms: _272  and  _273
REMARK  109  A    between atoms: _272  and  _275
REMARK  110  A    between atoms: _275  and  _276
REMARK  111  A    between atoms: _281  and  _282
REMARK  112  A    between atoms: _284  and  _286
REMARK  113  A    between atoms: _286  and  _287
REMARK  114  A    between atoms: _286  and  _289
REMARK  115  A    between atoms: _289  and  _290
REMARK  116  A    between atoms: _295  and  _296
REMARK  117  A    between atoms: _298  and  _300
REMARK  118  A    between atoms: _300  and  _301
REMARK  119  A    between atoms: _300  and  _303
REMARK  120  A    between atoms: _303  and  _304
REMARK  121  A    between atoms: _304  and  _305
REMARK  122  A    between atoms: _308  and  _310
REMARK  123  A    between atoms: _310  and  _311
REMARK  124  A    between atoms: _310  and  _313
REMARK  125  A    between atoms: _313  and  _314
REMARK  126  A    between atoms: _319  and  _320
REMARK  127  A    between atoms: _322  and  _324
REMARK  128  A    between atoms: _324  and  _325
REMARK  129  A    between atoms: _324  and  _327
REMARK  130  A    between atoms: _327  and  _328
REMARK  131  A    between atoms: _333  and  _335
REMARK  132  A    between atoms: _335  and  _336
REMARK  133  A    between atoms: _335  and  _338
REMARK  134  A    between atoms: _338  and  _339
REMARK  135  A    between atoms: _342  and  _344
REMARK  136  A    between atoms: _344  and  _345
REMARK  137  A    between atoms: _344  and  _347
REMARK  138  A    between atoms: _347  and  _348
REMARK  139  A    between atoms: _353  and  _355
REMARK  140  A    between atoms: _355  and  _356
REMARK  141  A    between atoms: _355  and  _358
REMARK  142  A    between atoms: _358  and  _359
REMARK  143  A    between atoms: _369  and  _371
REMARK  144  A    between atoms: _371  and  _372
REMARK  145  A    between atoms: _371  and  _374
REMARK  146  A    between atoms: _374  and  _375
REMARK  147  A    between atoms: _381  and  _383
REMARK  148  A    between atoms: _383  and  _384
REMARK  149  A    between atoms: _383  and  _386
REMARK  150  A    between atoms: _386  and  _387
REMARK  151  A    between atoms: _390  and  _392
REMARK  152  A    between atoms: _392  and  _393
REMARK  153  A    between atoms: _392  and  _395
REMARK  154  A    between atoms: _395  and  _396
REMARK  155  A    between atoms: _399  and  _401
REMARK  156  A    between atoms: _401  and  _402
REMARK  157  A    between atoms: _401  and  _404
REMARK  158  A    between atoms: _404  and  _405
REMARK  159  A    between atoms: _405  and  _406
REMARK  160  A    between atoms: _406  and  _407
REMARK  161  A    between atoms: _416  and  _418
REMARK  162  A    between atoms: _418  and  _419
REMARK  163  A    between atoms: _418  and  _421
REMARK  164  A    between atoms: _421  and  _422
REMARK  165  A    between atoms: _427  and  _429
REMARK  166  A    between atoms: _429  and  _430
REMARK  167  A    between atoms: _429  and  _432
REMARK  168  A    between atoms: _432  and  _433
REMARK  169  A    between atoms: _433  and  _434
REMARK  170  A    between atoms: _434  and  _435
REMARK  171  A    between atoms: _444  and  _446
REMARK  172  A    between atoms: _446  and  _447
REMARK  173  A    between atoms: _450  and  _452
REMARK  174  A    between atoms: _452  and  _453
REMARK  175  A    between atoms: _455  and  _457
REMARK  176  A    between atoms: _457  and  _458
REMARK  177  A    between atoms: _457  and  _460
REMARK  178  A    between atoms: _460  and  _461
REMARK  179  A    between atoms: _471  and  _473
REMARK  180  A    between atoms: _473  and  _474
REMARK  181  A    between atoms: _473  and  _476
REMARK  182  A    between atoms: _476  and  _477
REMARK  183  A    between atoms: _478  and  _480
REMARK  184  A    between atoms: _480  and  _481
REMARK  185  A    between atoms: _484  and  _486
REMARK  186  A    between atoms: _486  and  _487
REMARK  187  A    between atoms: _486  and  _489
REMARK  188  A    between atoms: _489  and  _490
REMARK  189  A    between atoms: _493  and  _495
REMARK  190  A    between atoms: _495  and  _496
REMARK  191  A    between atoms: _495  and  _498
REMARK  192  A    between atoms: _498  and  _499
REMARK  193  A    between atoms: _504  and  _505
REMARK  194  A    between atoms: _507  and  _509
REMARK  195  A    between atoms: _509  and  _510
REMARK  196  A    between atoms: _509  and  _512
REMARK  197  A    between atoms: _512  and  _513
REMARK  198  A    between atoms: _515  and  _517
REMARK  199  A    between atoms: _517  and  _518
REMARK  200  A    between atoms: _517  and  _520
REMARK  201  A    between atoms: _520  and  _521
REMARK  202  A    between atoms: _527  and  _529
REMARK  203  A    between atoms: _529  and  _530
REMARK  204  A    between atoms: _529  and  _532
REMARK  205  A    between atoms: _532  and  _533
REMARK  206  A    between atoms: _536  and  _538
REMARK  207  A    between atoms: _538  and  _539
REMARK  208  A    between atoms: _538  and  _541
REMARK  209  A    between atoms: _541  and  _542
REMARK  210  A    between atoms: _544  and  _546
REMARK  211  A    between atoms: _546  and  _547
REMARK  212  A    between atoms: _546  and  _549
REMARK  213  A    between atoms: _549  and  _550
REMARK  214  A    between atoms: _555  and  _557
REMARK  215  A    between atoms: _557  and  _558
REMARK  216  A    between atoms: _557  and  _560
REMARK  217  A    between atoms: _560  and  _561
REMARK  218  A    between atoms: _566  and  _568
REMARK  219  A    between atoms: _568  and  _569
REMARK  220  A    between atoms: _568  and  _571
REMARK  221  A    between atoms: _571  and  _572
REMARK  222  A    between atoms: _575  and  _577
REMARK  223  A    between atoms: _577  and  _578
REMARK  224  A    between atoms: _581  and  _583
REMARK  225  A    between atoms: _583  and  _584
REMARK  226  A    between atoms: _583  and  _586
REMARK  227  A    between atoms: _586  and  _587
REMARK  228  A    between atoms: _592  and  _593
REMARK  229  A    between atoms: _595  and  _597
REMARK  230  A    between atoms: _597  and  _598
REMARK  231  A    between atoms: _597  and  _600
REMARK  232  A    between atoms: _600  and  _601
REMARK  233  A    between atoms: _606  and  _607
REMARK  234  A    between atoms: _609  and  _611
REMARK  235  A    between atoms: _611  and  _612
REMARK  236  A    between atoms: _611  and  _614
REMARK  237  A    between atoms: _617  and  _619
REMARK  238  A    between atoms: _619  and  _620
REMARK  239  A    between atoms: _619  and  _622
REMARK  240  A    between atoms: _622  and  _623
REMARK  241  A    between atoms: _628  and  _630
REMARK  242  A    between atoms: _630  and  _631
REMARK  243  A    between atoms: _634  and  _636
REMARK  244  A    between atoms: _636  and  _637
REMARK  245  A    between atoms: _636  and  _639
REMARK  246  A    between atoms: _639  and  _640
REMARK  247  A    between atoms: _640  and  _641
REMARK  248  A    between atoms: _641  and  _642
REMARK  249  A    between atoms: _651  and  _653
REMARK  250  A    between atoms: _653  and  _654
REMARK  251  A    between atoms: _653  and  _656
REMARK  252  A    between atoms: _656  and  _657
REMARK  253  A    between atoms: _660  and  _662
REMARK  254  A    between atoms: _662  and  _663
REMARK  255  A    between atoms: _662  and  _665
REMARK  256  A    between atoms: _665  and  _666
REMARK  257  A    between atoms: _669  and  _671
REMARK  258  A    between atoms: _671  and  _672
REMARK  259  A    between atoms: _671  and  _674
REMARK  260  A    between atoms: _674  and  _675
REMARK                            x       y       z     vdW  Elec       q    Type
REMARK                         _______ _______ _______ _____ _____    ______ ____
ROOT
ATOM      1  O   HOH     1       8.060  11.379   5.215  0.00  0.00    +0.000 OA
ENDROOT
TORSDOF 0
REMARK  Name = ../refined-set-2016/1b32/1b32_pocket.pdb
REMARK  260 active torsions:
REMARK  status: ('A' for Active; 'I' for Inactive)
REMARK    1  A    between atoms: _1  and  _3
REMARK    2  A    between atoms: _3  and  _4
REMARK    3  A    between atoms: _3  and  _6
REMARK    4  A    between atoms: _6  and  _7
REMARK    5  A    between atoms: _12  and  _14
REMARK    6  A    between atoms: _14  and  _15
REMARK    7  A    between atoms: _14  and  _17
REMARK    8  A    between atoms: _17  and  _18
REMARK    9  A    between atoms: _20  and  _22
REMARK   10  A    between atoms: _22  and  _23
REMARK   11  A    between atoms: _22  and  _25
REMARK   12  A    between atoms: _25  and  _26
REMARK   13  A    between atoms: _26  and  _27
REMARK   14  A    between atoms: _32  and  _34
REMARK   15  A    between atoms: _34  and  _35
REMARK   16  A    between atoms: _34  and  _37
REMARK   17  A    between atoms: _37  and  _38
REMARK   18  A    between atoms: _41  and  _43
REMARK   19  A    between atoms: _43  and  _44
REMARK   20  A    between atoms: _43  and  _46
REMARK   21  A    between atoms: _46  and  _47
REMARK   22  A    between atoms: _47  and  _48
REMARK   23  A    between atoms: _51  and  _53
REMARK   24  A    between atoms: _53  and  _54
REMARK   25  A    between atoms: _56  and  _58
REMARK   26  A    between atoms: _58  and  _59
REMARK   27  A    between atoms: _58  and  _61
REMARK   28  A    between atoms: _65  and  _66
REMARK   29  A    between atoms: _71  and  _73
REMARK   30  A    between atoms: _73  and  _74
REMARK   31  A    between atoms: _73  and  _76
REMARK   32  A    between atoms: _76  and  _77
REMARK   33  A    between atoms: _77  and  _78
REMARK   34  A    between atoms: _81  and  _83
REMARK   35  A    between atoms: _83  and  _84
REMARK   36  A    between atoms: _83  and  _86
REMARK   37  A    between atoms: _86  and  _87
REMARK   38  A    between atoms: _89  and  _91
REMARK   39  A    between atoms: _91  and  _92
REMARK   40  A    between atoms: _91  and  _94
REMARK   41  A    between atoms: _94  and  _95
REMARK   42  A    between atoms: _100  and  _102
REMARK   43  A    between atoms: _102  and  _103
REMARK   44  A    between atoms: _102  and  _105
REMARK   45  A    between atoms: _105  and  _106
REMARK   46  A    between atoms: _106  and  _107
REMARK   47  A    between atoms: _107  and  _108
REMARK   48  A    between atoms: _118  and  _119
REMARK   49  A    between atoms: _124  and  _126
REMARK   50  A    between atoms: _126  and  _127
REMARK   51  A    between atoms: _126  and  _129
REMARK   52  A    between atoms: _129  and  _130
REMARK   53  A    between atoms: _135  and  _136
REMARK   54  A    between atoms: _138  and  _140
REMARK   55  A    between atoms: _140  and  _141
REMARK   56  A    between atoms: _140  and  _143
REMARK   57  A    between atoms: _143  and  _144
REMARK   58  A    between atoms: _149  and  _150
REMARK   59  A    between atoms: _152  and  _154
REMARK   60  A    between atoms: _154  and  _155
REMARK   61  A    between atoms: _154  and  _157
REMARK   62  A    between atoms: _160  and  _162
REMARK   63  A    between atoms: _162  and  _163
REMARK   64  A    between atoms: _162  and  _165
REMARK   65  A    between atoms: _165  and  _166
REMARK   66  A    between atoms: _172  and  _173
REMARK   67  A    between atoms: _178  and  _180
REMARK   68  A    between atoms: _180  and  _181
REMARK   69  A    between atoms: _180  and  _183
REMARK   70  A    between atoms: _183  and  _184
REMARK   71  A    between atoms: _186  and  _188
REMARK   72  A    between atoms: _188  and  _189
REMARK   73  A    between atoms: _188  and  _191
REMARK   74  A    between atoms: _191  and  _192
REMARK   75  A    between atoms: _197  and  _198
REMARK   76  A    between atoms: _200  and  _202
REMARK   77  A    between atoms: _202  and  _203
REMARK   78  A    between atoms: _202  and  _205
REMARK   79  A    between atoms: _205  and  _206
REMARK   80  A    between atoms: _211  and  _213
REMARK   81  A    between atoms: _213  and  _214
REMARK   82  A    between atoms: _213  and  _216
REMARK   83  A    between atoms: _216  and  _217
REMARK   84  A    between atoms: _222  and  _224
REMARK   85  A    between atoms: _224  and  _225
REMARK   86  A    between atoms: _224  and  _227
REMARK   87  A    between atoms: _227  and  _228
REMARK   88  A    between atoms: _228  and  _229
REMARK   89  A    between atoms: _231  and  _233
REMARK   90  A    between atoms: _233  and  _234
REMARK   91  A    between atoms: _233  and  _236
REMARK   92  A    between atoms: _236  and  _237
REMARK   93  A    between atoms: _242  and  _243
REMARK   94  A    between atoms: _245  and  _247
REMARK   95  A    between atoms: _247  and  _248
REMARK   96  A    between atoms: _247  and  _250
REMARK   97  A    between atoms: _250  and  _251
REMARK   98  A    between atoms: _254  and  _256
REMARK   99  A    between atoms: _256  and  _257
REMARK  100  A    between atoms: _256  and  _259
REMARK  101  A    between atoms: _259  and  _260
REMARK  102  A    between atoms: _260  and  _477
REMARK  103  A    between atoms: _261  and  _263
REMARK  104  A    between atoms: _263  and  _264
REMARK  105  A    between atoms: _263  and  _266
REMARK  106  A    between atoms: _266  and  _267
REMARK  107  A    between atoms: _270  and  _272
REMARK  108  A    between atoms: _272  and  _273
REMARK  109  A    between atoms: _272  and  _275
REMARK  110  A    between atoms: _275  and  _276
REMARK  111  A    between atoms: _281  and  _282
REMARK  112  A    between atoms: _284  and  _286
REMARK  113  A    between atoms: _286  and  _287
REMARK  114  A    between atoms: _286  and  _289
REMARK  115  A    between atoms: _289  and  _290
REMARK  116  A    between atoms: _295  and  _296
REMARK  117  A    between atoms: _298  and  _300
REMARK  118  A    between atoms: _300  and  _301
REMARK  119  A    between atoms: _300  and  _303
REMARK  120  A    between atoms: _303  and  _304
REMARK  121  A    between atoms: _304  and  _305
REMARK  122  A    between atoms: _308  and  _310
REMARK  123  A    between atoms: _310  and  _311
REMARK  124  A    between atoms: _310  and  _313
REMARK  125  A    between atoms: _313  and  _314
REMARK  126  A    between atoms: _319  and  _320
REMARK  127  A    between atoms: _322  and  _324
REMARK  128  A    between atoms: _324  and  _325
REMARK  129  A    between atoms: _324  and  _327
REMARK  130  A    between atoms: _327  and  _328
REMARK  131  A    between atoms: _333  and  _335
REMARK  132  A    between atoms: _335  and  _336
REMARK  133  A    between atoms: _335  and  _338
REMARK  134  A    between atoms: _338  and  _339
REMARK  135  A    between atoms: _342  and  _344
REMARK  136  A    between atoms: _344  and  _345
REMARK  137  A    between atoms: _344  and  _347
REMARK  138  A    between atoms: _347  and  _348
REMARK  139  A    between atoms: _353  and  _355
REMARK  140  A    between atoms: _355  and  _356
REMARK  141  A    between atoms: _355  and  _358
REMARK  142  A    between atoms: _358  and  _359
REMARK  143  A    between atoms: _369  and  _371
REMARK  144  A    between atoms: _371  and  _372
REMARK  145  A    between atoms: _371  and  _374
REMARK  146  A    between atoms: _374  and  _375
REMARK  147  A    between atoms: _381  and  _383
REMARK  148  A    between atoms: _383  and  _384
REMARK  149  A    between atoms: _383  and  _386
REMARK  150  A    between atoms: _386  and  _387
REMARK  151  A    between atoms: _390  and  _392
REMARK  152  A    between atoms: _392  and  _393
REMARK  153  A    between atoms: _392  and  _395
REMARK  154  A    between atoms: _395  and  _396
REMARK  155  A    between atoms: _399  and  _401
REMARK  156  A    between atoms: _401  and  _402
REMARK  157  A    between atoms: _401  and  _404
REMARK  158  A    between atoms: _404  and  _405
REMARK  159  A    between atoms: _405  and  _406
REMARK  160  A    between atoms: _406  and  _407
REMARK  161  A    between atoms: _416  and  _418
REMARK  162  A    between atoms: _418  and  _419
REMARK  163  A    between atoms: _418  and  _421
REMARK  164  A    between atoms: _421  and  _422
REMARK  165  A    between atoms: _427  and  _429
REMARK  166  A    between atoms: _429  and  _430
REMARK  167  A    between atoms: _429  and  _432
REMARK  168  A    between atoms: _432  and  _433
REMARK  169  A    between atoms: _433  and  _434
REMARK  170  A    between atoms: _434  and  _435
REMARK  171  A    between atoms: _444  and  _446
REMARK  172  A    between atoms: _446  and  _447
REMARK  173  A    between atoms: _450  and  _452
REMARK  174  A    between atoms: _452  and  _453
REMARK  175  A    between atoms: _455  and  _457
REMARK  176  A    between atoms: _457  and  _458
REMARK  177  A    between atoms: _457  and  _460
REMARK  178  A    between atoms: _460  and  _461
REMARK  179  A    between atoms: _471  and  _473
REMARK  180  A    between atoms: _473  and  _474
REMARK  181  A    between atoms: _473  and  _476
REMARK  182  A    between atoms: _476  and  _477
REMARK  183  A    between atoms: _478  and  _480
REMARK  184  A    between atoms: _480  and  _481
REMARK  185  A    between atoms: _484  and  _486
REMARK  186  A    between atoms: _486  and  _487
REMARK  187  A    between atoms: _486  and  _489
REMARK  188  A    between atoms: _489  and  _490
REMARK  189  A    between atoms: _493  and  _495
REMARK  190  A    between atoms: _495  and  _496
REMARK  191  A    between atoms: _495  and  _498
REMARK  192  A    between atoms: _498  and  _499
REMARK  193  A    between atoms: _504  and  _505
REMARK  194  A    between atoms: _507  and  _509
REMARK  195  A    between atoms: _509  and  _510
REMARK  196  A    between atoms: _509  and  _512
REMARK  197  A    between atoms: _512  and  _513
REMARK  198  A    between atoms: _515  and  _517
REMARK  199  A    between atoms: _517  and  _518
REMARK  200  A    between atoms: _517  and  _520
REMARK  201  A    between atoms: _520  and  _521
REMARK  202  A    between atoms: _527  and  _529
REMARK  203  A    between atoms: _529  and  _530
REMARK  204  A    between atoms: _529  and  _532
REMARK  205  A    between atoms: _532  and  _533
REMARK  206  A    between atoms: _536  and  _538
REMARK  207  A    between atoms: _538  and  _539
REMARK  208  A    between atoms: _538  and  _541
REMARK  209  A    between atoms: _541  and  _542
REMARK  210  A    between atoms: _544  and  _546
REMARK  211  A    between atoms: _546  and  _547
REMARK  212  A    between atoms: _546  and  _549
REMARK  213  A    between atoms: _549  and  _550
REMARK  214  A    between atoms: _555  and  _557
REMARK  215  A    between atoms: _557  and  _558
REMARK  216  A    between atoms: _557  and  _560
REMARK  217  A    between atoms: _560  and  _561
REMARK  218  A    between atoms: _566  and  _568
REMARK  219  A    between atoms: _568  and  _569
REMARK  220  A    between atoms: _568  and  _571
REMARK  221  A    between atoms: _571  and  _572
REMARK  222  A    between atoms: _575  and  _577
REMARK  223  A    between atoms: _577  and  _578
REMARK  224  A    between atoms: _581  and  _583
REMARK  225  A    between atoms: _583  and  _584
REMARK  226  A    between atoms: _583  and  _586
REMARK  227  A    between atoms: _586  and  _587
REMARK  228  A    between atoms: _592  and  _593
REMARK  229  A    between atoms: _595  and  _597
REMARK  230  A    between atoms: _597  and  _598
REMARK  231  A    between atoms: _597  and  _600
REMARK  232  A    between atoms: _600  and  _601
REMARK  233  A    between atoms: _606  and  _607
REMARK  234  A    between atoms: _609  and  _611
REMARK  235  A    between atoms: _611  and  _612
REMARK  236  A    between atoms: _611  and  _614
REMARK  237  A    between atoms: _617  and  _619
REMARK  238  A    between atoms: _619  and  _620
REMARK  239  A    between atoms: _619  and  _622
REMARK  240  A    between atoms: _622  and  _623
REMARK  241  A    between atoms: _628  and  _630
REMARK  242  A    between atoms: _630  and  _631
REMARK  243  A    between atoms: _634  and  _636
REMARK  244  A    between atoms: _636  and  _637
REMARK  245  A    between atoms: _636  and  _639
REMARK  246  A    between atoms: _639  and  _640
REMARK  247  A    between atoms: _640  and  _641
REMARK  248  A    between atoms: _641  and  _642
REMARK  249  A    between atoms: _651  and  _653
REMARK  250  A    between atoms: _653  and  _654
REMARK  251  A    between atoms: _653  and  _656
REMARK  252  A    between atoms: _656  and  _657
REMARK  253  A    between atoms: _660  and  _662
REMARK  254  A    between atoms: _662  and  _663
REMARK  255  A    between atoms: _662  and  _665
REMARK  256  A    between atoms: _665  and  _666
REMARK  257  A    between atoms: _669  and  _671
REMARK  258  A    between atoms: _671  and  _672
REMARK  259  A    between atoms: _671  and  _674
REMARK  260  A    between atoms: _674  and  _675
REMARK                            x       y       z     vdW  Elec       q    Type
REMARK                         _______ _______ _______ _____ _____    ______ ____
ROOT
ATOM      1  O   HOH     1       7.162  18.929  22.373  0.00  0.00    +0.000 OA
ENDROOT
TORSDOF 0
REMARK  Name = ../refined-set-2016/1b32/1b32_pocket.pdb
REMARK  260 active torsions:
REMARK  status: ('A' for Active; 'I' for Inactive)
REMARK    1  A    between atoms: _1  and  _3
REMARK    2  A    between atoms: _3  and  _4
REMARK    3  A    between atoms: _3  and  _6
REMARK    4  A    between atoms: _6  and  _7
REMARK    5  A    between atoms: _12  and  _14
REMARK    6  A    between atoms: _14  and  _15
REMARK    7  A    between atoms: _14  and  _17
REMARK    8  A    between atoms: _17  and  _18
REMARK    9  A    between atoms: _20  and  _22
REMARK   10  A    between atoms: _22  and  _23
REMARK   11  A    between atoms: _22  and  _25
REMARK   12  A    between atoms: _25  and  _26
REMARK   13  A    between atoms: _26  and  _27
REMARK   14  A    between atoms: _32  and  _34
REMARK   15  A    between atoms: _34  and  _35
REMARK   16  A    between atoms: _34  and  _37
REMARK   17  A    between atoms: _37  and  _38
REMARK   18  A    between atoms: _41  and  _43
REMARK   19  A    between atoms: _43  and  _44
REMARK   20  A    between atoms: _43  and  _46
REMARK   21  A    between atoms: _46  and  _47
REMARK   22  A    between atoms: _47  and  _48
REMARK   23  A    between atoms: _51  and  _53
REMARK   24  A    between atoms: _53  and  _54
REMARK   25  A    between atoms: _56  and  _58
REMARK   26  A    between atoms: _58  and  _59
REMARK   27  A    between atoms: _58  and  _61
REMARK   28  A    between atoms: _65  and  _66
REMARK   29  A    between atoms: _71  and  _73
REMARK   30  A    between atoms: _73  and  _74
REMARK   31  A    between atoms: _73  and  _76
REMARK   32  A    between atoms: _76  and  _77
REMARK   33  A    between atoms: _77  and  _78
REMARK   34  A    between atoms: _81  and  _83
REMARK   35  A    between atoms: _83  and  _84
REMARK   36  A    between atoms: _83  and  _86
REMARK   37  A    between atoms: _86  and  _87
REMARK   38  A    between atoms: _89  and  _91
REMARK   39  A    between atoms: _91  and  _92
REMARK   40  A    between atoms: _91  and  _94
REMARK   41  A    between atoms: _94  and  _95
REMARK   42  A    between atoms: _100  and  _102
REMARK   43  A    between atoms: _102  and  _103
REMARK   44  A    between atoms: _102  and  _105
REMARK   45  A    between atoms: _105  and  _106
REMARK   46  A    between atoms: _106  and  _107
REMARK   47  A    between atoms: _107  and  _108
REMARK   48  A    between atoms: _118  and  _119
REMARK   49  A    between atoms: _124  and  _126
REMARK   50  A    between atoms: _126  and  _127
REMARK   51  A    between atoms: _126  and  _129
REMARK   52  A    between atoms: _129  and  _130
REMARK   53  A    between atoms: _135  and  _136
REMARK   54  A    between atoms: _138  and  _140
REMARK   55  A    between atoms: _140  and  _141
REMARK   56  A    between atoms: _140  and  _143
REMARK   57  A    between atoms: _143  and  _144
REMARK   58  A    between atoms: _149  and  _150
REMARK   59  A    between atoms: _152  and  _154
REMARK   60  A    between atoms: _154  and  _155
REMARK   61  A    between atoms: _154  and  _157
REMARK   62  A    between atoms: _160  and  _162
REMARK   63  A    between atoms: _162  and  _163
REMARK   64  A    between atoms: _162  and  _165
REMARK   65  A    between atoms: _165  and  _166
REMARK   66  A    between atoms: _172  and  _173
REMARK   67  A    between atoms: _178  and  _180
REMARK   68  A    between atoms: _180  and  _181
REMARK   69  A    between atoms: _180  and  _183
REMARK   70  A    between atoms: _183  and  _184
REMARK   71  A    between atoms: _186  and  _188
REMARK   72  A    between atoms: _188  and  _189
REMARK   73  A    between atoms: _188  and  _191
REMARK   74  A    between atoms: _191  and  _192
REMARK   75  A    between atoms: _197  and  _198
REMARK   76  A    between atoms: _200  and  _202
REMARK   77  A    between atoms: _202  and  _203
REMARK   78  A    between atoms: _202  and  _205
REMARK   79  A    between atoms: _205  and  _206
REMARK   80  A    between atoms: _211  and  _213
REMARK   81  A    between atoms: _213  and  _214
REMARK   82  A    between atoms: _213  and  _216
REMARK   83  A    between atoms: _216  and  _217
REMARK   84  A    between atoms: _222  and  _224
REMARK   85  A    between atoms: _224  and  _225
REMARK   86  A    between atoms: _224  and  _227
REMARK   87  A    between atoms: _227  and  _228
REMARK   88  A    between atoms: _228  and  _229
REMARK   89  A    between atoms: _231  and  _233
REMARK   90  A    between atoms: _233  and  _234
REMARK   91  A    between atoms: _233  and  _236
REMARK   92  A    between atoms: _236  and  _237
REMARK   93  A    between atoms: _242  and  _243
REMARK   94  A    between atoms: _245  and  _247
REMARK   95  A    between atoms: _247  and  _248
REMARK   96  A    between atoms: _247  and  _250
REMARK   97  A    between atoms: _250  and  _251
REMARK   98  A    between atoms: _254  and  _256
REMARK   99  A    between atoms: _256  and  _257
REMARK  100  A    between atoms: _256  and  _259
REMARK  101  A    between atoms: _259  and  _260
REMARK  102  A    between atoms: _260  and  _477
REMARK  103  A    between atoms: _261  and  _263
REMARK  104  A    between atoms: _263  and  _264
REMARK  105  A    between atoms: _263  and  _266
REMARK  106  A    between atoms: _266  and  _267
REMARK  107  A    between atoms: _270  and  _272
REMARK  108  A    between atoms: _272  and  _273
REMARK  109  A    between atoms: _272  and  _275
REMARK  110  A    between atoms: _275  and  _276
REMARK  111  A    between atoms: _281  and  _282
REMARK  112  A    between atoms: _284  and  _286
REMARK  113  A    between atoms: _286  and  _287
REMARK  114  A    between atoms: _286  and  _289
REMARK  115  A    between atoms: _289  and  _290
REMARK  116  A    between atoms: _295  and  _296
REMARK  117  A    between atoms: _298  and  _300
REMARK  118  A    between atoms: _300  and  _301
REMARK  119  A    between atoms: _300  and  _303
REMARK  120  A    between atoms: _303  and  _304
REMARK  121  A    between atoms: _304  and  _305
REMARK  122  A    between atoms: _308  and  _310
REMARK  123  A    between atoms: _310  and  _311
REMARK  124  A    between atoms: _310  and  _313
REMARK  125  A    between atoms: _313  and  _314
REMARK  126  A    between atoms: _319  and  _320
REMARK  127  A    between atoms: _322  and  _324
REMARK  128  A    between atoms: _324  and  _325
REMARK  129  A    between atoms: _324  and  _327
REMARK  130  A    between atoms: _327  and  _328
REMARK  131  A    between atoms: _333  and  _335
REMARK  132  A    between atoms: _335  and  _336
REMARK  133  A    between atoms: _335  and  _338
REMARK  134  A    between atoms: _338  and  _339
REMARK  135  A    between atoms: _342  and  _344
REMARK  136  A    between atoms: _344  and  _345
REMARK  137  A    between atoms: _344  and  _347
REMARK  138  A    between atoms: _347  and  _348
REMARK  139  A    between atoms: _353  and  _355
REMARK  140  A    between atoms: _355  and  _356
REMARK  141  A    between atoms: _355  and  _358
REMARK  142  A    between atoms: _358  and  _359
REMARK  143  A    between atoms: _369  and  _371
REMARK  144  A    between atoms: _371  and  _372
REMARK  145  A    between atoms: _371  and  _374
REMARK  146  A    between atoms: _374  and  _375
REMARK  147  A    between atoms: _381  and  _383
REMARK  148  A    between atoms: _383  and  _384
REMARK  149  A    between atoms: _383  and  _386
REMARK  150  A    between atoms: _386  and  _387
REMARK  151  A    between atoms: _390  and  _392
REMARK  152  A    between atoms: _392  and  _393
REMARK  153  A    between atoms: _392  and  _395
REMARK  154  A    between atoms: _395  and  _396
REMARK  155  A    between atoms: _399  and  _401
REMARK  156  A    between atoms: _401  and  _402
REMARK  157  A    between atoms: _401  and  _404
REMARK  158  A    between atoms: _404  and  _405
REMARK  159  A    between atoms: _405  and  _406
REMARK  160  A    between atoms: _406  and  _407
REMARK  161  A    between atoms: _416  and  _418
REMARK  162  A    between atoms: _418  and  _419
REMARK  163  A    between atoms: _418  and  _421
REMARK  164  A    between atoms: _421  and  _422
REMARK  165  A    between atoms: _427  and  _429
REMARK  166  A    between atoms: _429  and  _430
REMARK  167  A    between atoms: _429  and  _432
REMARK  168  A    between atoms: _432  and  _433
REMARK  169  A    between atoms: _433  and  _434
REMARK  170  A    between atoms: _434  and  _435
REMARK  171  A    between atoms: _444  and  _446
REMARK  172  A    between atoms: _446  and  _447
REMARK  173  A    between atoms: _450  and  _452
REMARK  174  A    between atoms: _452  and  _453
REMARK  175  A    between atoms: _455  and  _457
REMARK  176  A    between atoms: _457  and  _458
REMARK  177  A    between atoms: _457  and  _460
REMARK  178  A    between atoms: _460  and  _461
REMARK  179  A    between atoms: _471  and  _473
REMARK  180  A    between atoms: _473  and  _474
REMARK  181  A    between atoms: _473  and  _476
REMARK  182  A    between atoms: _476  and  _477
REMARK  183  A    between atoms: _478  and  _480
REMARK  184  A    between atoms: _480  and  _481
REMARK  185  A    between atoms: _484  and  _486
REMARK  186  A    between atoms: _486  and  _487
REMARK  187  A    between atoms: _486  and  _489
REMARK  188  A    between atoms: _489  and  _490
REMARK  189  A    between atoms: _493  and  _495
REMARK  190  A    between atoms: _495  and  _496
REMARK  191  A    between atoms: _495  and  _498
REMARK  192  A    between atoms: _498  and  _499
REMARK  193  A    between atoms: _504  and  _505
REMARK  194  A    between atoms: _507  and  _509
REMARK  195  A    between atoms: _509  and  _510
REMARK  196  A    between atoms: _509  and  _512
REMARK  197  A    between atoms: _512  and  _513
REMARK  198  A    between atoms: _515  and  _517
REMARK  199  A    between atoms: _517  and  _518
REMARK  200  A    between atoms: _517  and  _520
REMARK  201  A    between atoms: _520  and  _521
REMARK  202  A    between atoms: _527  and  _529
REMARK  203  A    between atoms: _529  and  _530
REMARK  204  A    between atoms: _529  and  _532
REMARK  205  A    between atoms: _532  and  _533
REMARK  206  A    between atoms: _536  and  _538
REMARK  207  A    between atoms: _538  and  _539
REMARK  208  A    between atoms: _538  and  _541
REMARK  209  A    between atoms: _541  and  _542
REMARK  210  A    between atoms: _544  and  _546
REMARK  211  A    between atoms: _546  and  _547
REMARK  212  A    between atoms: _546  and  _549
REMARK  213  A    between atoms: _549  and  _550
REMARK  214  A    between atoms: _555  and  _557
REMARK  215  A    between atoms: _557  and  _558
REMARK  216  A    between atoms: _557  and  _560
REMARK  217  A    between atoms: _560  and  _561
REMARK  218  A    between atoms: _566  and  _568
REMARK  219  A    between atoms: _568  and  _569
REMARK  220  A    between atoms: _568  and  _571
REMARK  221  A    between atoms: _571  and  _572
REMARK  222  A    between atoms: _575  and  _577
REMARK  223  A    between atoms: _577  and  _578
REMARK  224  A    between atoms: _581  and  _583
REMARK  225  A    between atoms: _583  and  _584
REMARK  226  A    between atoms: _583  and  _586
REMARK  227  A    between atoms: _586  and  _587
REMARK  228  A    between atoms: _592  and  _593
REMARK  229  A    between atoms: _595  and  _597
REMARK  230  A    between atoms: _597  and  _598
REMARK  231  A    between atoms: _597  and  _600
REMARK  232  A    between atoms: _600  and  _601
REMARK  233  A    between atoms: _606  and  _607
REMARK  234  A    between atoms: _609  and  _611
REMARK  235  A    between atoms: _611  and  _612
REMARK  236  A    between atoms: _611  and  _614
REMARK  237  A    between atoms: _617  and  _619
REMARK  238  A    between atoms: _619  and  _620
REMARK  239  A    between atoms: _619  and  _622
REMARK  240  A    between atoms: _622  and  _623
REMARK  241  A    between atoms: _628  and  _630
REMARK  242  A    between atoms: _630  and  _631
REMARK  243  A    between atoms: _634  and  _636
REMARK  244  A    between atoms: _636  and  _637
REMARK  245  A    between atoms: _636  and  _639
REMARK  246  A    between atoms: _639  and  _640
REMARK  247  A    between atoms: _640  and  _641
REMARK  248  A    between atoms: _641  and  _642
REMARK  249  A    between atoms: _651  and  _653
REMARK  250  A    between atoms: _653  and  _654
REMARK  251  A    between atoms: _653  and  _656
REMARK  252  A    between atoms: _656  and  _657
REMARK  253  A    between atoms: _660  and  _662
REMARK  254  A    between atoms: _662  and  _663
REMARK  255  A    between atoms: _662  and  _665
REMARK  256  A    between atoms: _665  and  _666
REMARK  257  A    between atoms: _669  and  _671
REMARK  258  A    between atoms: _671  and  _672
REMARK  259  A    between atoms: _671  and  _674
REMARK  260  A    between atoms: _674  and  _675
REMARK                            x       y       z     vdW  Elec       q    Type
REMARK                         _______ _______ _______ _____ _____    ______ ____
ROOT
ATOM      1  O   HOH     1       7.769  21.469  20.884  0.00  0.00    +0.000 OA
ENDROOT
TORSDOF 0
REMARK  Name = ../refined-set-2016/1b32/1b32_pocket.pdb
REMARK  260 active torsions:
REMARK  status: ('A' for Active; 'I' for Inactive)
REMARK    1  A    between atoms: _1  and  _3
REMARK    2  A    between atoms: _3  and  _4
REMARK    3  A    between atoms: _3  and  _6
REMARK    4  A    between atoms: _6  and  _7
REMARK    5  A    between atoms: _12  and  _14
REMARK    6  A    between atoms: _14  and  _15
REMARK    7  A    between atoms: _14  and  _17
REMARK    8  A    between atoms: _17  and  _18
REMARK    9  A    between atoms: _20  and  _22
REMARK   10  A    between atoms: _22  and  _23
REMARK   11  A    between atoms: _22  and  _25
REMARK   12  A    between atoms: _25  and  _26
REMARK   13  A    between atoms: _26  and  _27
REMARK   14  A    between atoms: _32  and  _34
REMARK   15  A    between atoms: _34  and  _35
REMARK   16  A    between atoms: _34  and  _37
REMARK   17  A    between atoms: _37  and  _38
REMARK   18  A    between atoms: _41  and  _43
REMARK   19  A    between atoms: _43  and  _44
REMARK   20  A    between atoms: _43  and  _46
REMARK   21  A    between atoms: _46  and  _47
REMARK   22  A    between atoms: _47  and  _48
REMARK   23  A    between atoms: _51  and  _53
REMARK   24  A    between atoms: _53  and  _54
REMARK   25  A    between atoms: _56  and  _58
REMARK   26  A    between atoms: _58  and  _59
REMARK   27  A    between atoms: _58  and  _61
REMARK   28  A    between atoms: _65  and  _66
REMARK   29  A    between atoms: _71  and  _73
REMARK   30  A    between atoms: _73  and  _74
REMARK   31  A    between atoms: _73  and  _76
REMARK   32  A    between atoms: _76  and  _77
REMARK   33  A    between atoms: _77  and  _78
REMARK   34  A    between atoms: _81  and  _83
REMARK   35  A    between atoms: _83  and  _84
REMARK   36  A    between atoms: _83  and  _86
REMARK   37  A    between atoms: _86  and  _87
REMARK   38  A    between atoms: _89  and  _91
REMARK   39  A    between atoms: _91  and  _92
REMARK   40  A    between atoms: _91  and  _94
REMARK   41  A    between atoms: _94  and  _95
REMARK   42  A    between atoms: _100  and  _102
REMARK   43  A    between atoms: _102  and  _103
REMARK   44  A    between atoms: _102  and  _105
REMARK   45  A    between atoms: _105  and  _106
REMARK   46  A    between atoms: _106  and  _107
REMARK   47  A    between atoms: _107  and  _108
REMARK   48  A    between atoms: _118  and  _119
REMARK   49  A    between atoms: _124  and  _126
REMARK   50  A    between atoms: _126  and  _127
REMARK   51  A    between atoms: _126  and  _129
REMARK   52  A    between atoms: _129  and  _130
REMARK   53  A    between atoms: _135  and  _136
REMARK   54  A    between atoms: _138  and  _140
REMARK   55  A    between atoms: _140  and  _141
REMARK   56  A    between atoms: _140  and  _143
REMARK   57  A    between atoms: _143  and  _144
REMARK   58  A    between atoms: _149  and  _150
REMARK   59  A    between atoms: _152  and  _154
REMARK   60  A    between atoms: _154  and  _155
REMARK   61  A    between atoms: _154  and  _157
REMARK   62  A    between atoms: _160  and  _162
REMARK   63  A    between atoms: _162  and  _163
REMARK   64  A    between atoms: _162  and  _165
REMARK   65  A    between atoms: _165  and  _166
REMARK   66  A    between atoms: _172  and  _173
REMARK   67  A    between atoms: _178  and  _180
REMARK   68  A    between atoms: _180  and  _181
REMARK   69  A    between atoms: _180  and  _183
REMARK   70  A    between atoms: _183  and  _184
REMARK   71  A    between atoms: _186  and  _188
REMARK   72  A    between atoms: _188  and  _189
REMARK   73  A    between atoms: _188  and  _191
REMARK   74  A    between atoms: _191  and  _192
REMARK   75  A    between atoms: _197  and  _198
REMARK   76  A    between atoms: _200  and  _202
REMARK   77  A    between atoms: _202  and  _203
REMARK   78  A    between atoms: _202  and  _205
REMARK   79  A    between atoms: _205  and  _206
REMARK   80  A    between atoms: _211  and  _213
REMARK   81  A    between atoms: _213  and  _214
REMARK   82  A    between atoms: _213  and  _216
REMARK   83  A    between atoms: _216  and  _217
REMARK   84  A    between atoms: _222  and  _224
REMARK   85  A    between atoms: _224  and  _225
REMARK   86  A    between atoms: _224  and  _227
REMARK   87  A    between atoms: _227  and  _228
REMARK   88  A    between atoms: _228  and  _229
REMARK   89  A    between atoms: _231  and  _233
REMARK   90  A    between atoms: _233  and  _234
REMARK   91  A    between atoms: _233  and  _236
REMARK   92  A    between atoms: _236  and  _237
REMARK   93  A    between atoms: _242  and  _243
REMARK   94  A    between atoms: _245  and  _247
REMARK   95  A    between atoms: _247  and  _248
REMARK   96  A    between atoms: _247  and  _250
REMARK   97  A    between atoms: _250  and  _251
REMARK   98  A    between atoms: _254  and  _256
REMARK   99  A    between atoms: _256  and  _257
REMARK  100  A    between atoms: _256  and  _259
REMARK  101  A    between atoms: _259  and  _260
REMARK  102  A    between atoms: _260  and  _477
REMARK  103  A    between atoms: _261  and  _263
REMARK  104  A    between atoms: _263  and  _264
REMARK  105  A    between atoms: _263  and  _266
REMARK  106  A    between atoms: _266  and  _267
REMARK  107  A    between atoms: _270  and  _272
REMARK  108  A    between atoms: _272  and  _273
REMARK  109  A    between atoms: _272  and  _275
REMARK  110  A    between atoms: _275  and  _276
REMARK  111  A    between atoms: _281  and  _282
REMARK  112  A    between atoms: _284  and  _286
REMARK  113  A    between atoms: _286  and  _287
REMARK  114  A    between atoms: _286  and  _289
REMARK  115  A    between atoms: _289  and  _290
REMARK  116  A    between atoms: _295  and  _296
REMARK  117  A    between atoms: _298  and  _300
REMARK  118  A    between atoms: _300  and  _301
REMARK  119  A    between atoms: _300  and  _303
REMARK  120  A    between atoms: _303  and  _304
REMARK  121  A    between atoms: _304  and  _305
REMARK  122  A    between atoms: _308  and  _310
REMARK  123  A    between atoms: _310  and  _311
REMARK  124  A    between atoms: _310  and  _313
REMARK  125  A    between atoms: _313  and  _314
REMARK  126  A    between atoms: _319  and  _320
REMARK  127  A    between atoms: _322  and  _324
REMARK  128  A    between atoms: _324  and  _325
REMARK  129  A    between atoms: _324  and  _327
REMARK  130  A    between atoms: _327  and  _328
REMARK  131  A    between atoms: _333  and  _335
REMARK  132  A    between atoms: _335  and  _336
REMARK  133  A    between atoms: _335  and  _338
REMARK  134  A    between atoms: _338  and  _339
REMARK  135  A    between atoms: _342  and  _344
REMARK  136  A    between atoms: _344  and  _345
REMARK  137  A    between atoms: _344  and  _347
REMARK  138  A    between atoms: _347  and  _348
REMARK  139  A    between atoms: _353  and  _355
REMARK  140  A    between atoms: _355  and  _356
REMARK  141  A    between atoms: _355  and  _358
REMARK  142  A    between atoms: _358  and  _359
REMARK  143  A    between atoms: _369  and  _371
REMARK  144  A    between atoms: _371  and  _372
REMARK  145  A    between atoms: _371  and  _374
REMARK  146  A    between atoms: _374  and  _375
REMARK  147  A    between atoms: _381  and  _383
REMARK  148  A    between atoms: _383  and  _384
REMARK  149  A    between atoms: _383  and  _386
REMARK  150  A    between atoms: _386  and  _387
REMARK  151  A    between atoms: _390  and  _392
REMARK  152  A    between atoms: _392  and  _393
REMARK  153  A    between atoms: _392  and  _395
REMARK  154  A    between atoms: _395  and  _396
REMARK  155  A    between atoms: _399  and  _401
REMARK  156  A    between atoms: _401  and  _402
REMARK  157  A    between atoms: _401  and  _404
REMARK  158  A    between atoms: _404  and  _405
REMARK  159  A    between atoms: _405  and  _406
REMARK  160  A    between atoms: _406  and  _407
REMARK  161  A    between atoms: _416  and  _418
REMARK  162  A    between atoms: _418  and  _419
REMARK  163  A    between atoms: _418  and  _421
REMARK  164  A    between atoms: _421  and  _422
REMARK  165  A    between atoms: _427  and  _429
REMARK  166  A    between atoms: _429  and  _430
REMARK  167  A    between atoms: _429  and  _432
REMARK  168  A    between atoms: _432  and  _433
REMARK  169  A    between atoms: _433  and  _434
REMARK  170  A    between atoms: _434  and  _435
REMARK  171  A    between atoms: _444  and  _446
REMARK  172  A    between atoms: _446  and  _447
REMARK  173  A    between atoms: _450  and  _452
REMARK  174  A    between atoms: _452  and  _453
REMARK  175  A    between atoms: _455  and  _457
REMARK  176  A    between atoms: _457  and  _458
REMARK  177  A    between atoms: _457  and  _460
REMARK  178  A    between atoms: _460  and  _461
REMARK  179  A    between atoms: _471  and  _473
REMARK  180  A    between atoms: _473  and  _474
REMARK  181  A    between atoms: _473  and  _476
REMARK  182  A    between atoms: _476  and  _477
REMARK  183  A    between atoms: _478  and  _480
REMARK  184  A    between atoms: _480  and  _481
REMARK  185  A    between atoms: _484  and  _486
REMARK  186  A    between atoms: _486  and  _487
REMARK  187  A    between atoms: _486  and  _489
REMARK  188  A    between atoms: _489  and  _490
REMARK  189  A    between atoms: _493  and  _495
REMARK  190  A    between atoms: _495  and  _496
REMARK  191  A    between atoms: _495  and  _498
REMARK  192  A    between atoms: _498  and  _499
REMARK  193  A    between atoms: _504  and  _505
REMARK  194  A    between atoms: _507  and  _509
REMARK  195  A    between atoms: _509  and  _510
REMARK  196  A    between atoms: _509  and  _512
REMARK  197  A    between atoms: _512  and  _513
REMARK  198  A    between atoms: _515  and  _517
REMARK  199  A    between atoms: _517  and  _518
REMARK  200  A    between atoms: _517  and  _520
REMARK  201  A    between atoms: _520  and  _521
REMARK  202  A    between atoms: _527  and  _529
REMARK  203  A    between atoms: _529  and  _530
REMARK  204  A    between atoms: _529  and  _532
REMARK  205  A    between atoms: _532  and  _533
REMARK  206  A    between atoms: _536  and  _538
REMARK  207  A    between atoms: _538  and  _539
REMARK  208  A    between atoms: _538  and  _541
REMARK  209  A    between atoms: _541  and  _542
REMARK  210  A    between atoms: _544  and  _546
REMARK  211  A    between atoms: _546  and  _547
REMARK  212  A    between atoms: _546  and  _549
REMARK  213  A    between atoms: _549  and  _550
REMARK  214  A    between atoms: _555  and  _557
REMARK  215  A    between atoms: _557  and  _558
REMARK  216  A    between atoms: _557  and  _560
REMARK  217  A    between atoms: _560  and  _561
REMARK  218  A    between atoms: _566  and  _568
REMARK  219  A    between atoms: _568  and  _569
REMARK  220  A    between atoms: _568  and  _571
REMARK  221  A    between atoms: _571  and  _572
REMARK  222  A    between atoms: _575  and  _577
REMARK  223  A    between atoms: _577  and  _578
REMARK  224  A    between atoms: _581  and  _583
REMARK  225  A    between atoms: _583  and  _584
REMARK  226  A    between atoms: _583  and  _586
REMARK  227  A    between atoms: _586  and  _587
REMARK  228  A    between atoms: _592  and  _593
REMARK  229  A    between atoms: _595  and  _597
REMARK  230  A    between atoms: _597  and  _598
REMARK  231  A    between atoms: _597  and  _600
REMARK  232  A    between atoms: _600  and  _601
REMARK  233  A    between atoms: _606  and  _607
REMARK  234  A    between atoms: _609  and  _611
REMARK  235  A    between atoms: _611  and  _612
REMARK  236  A    between atoms: _611  and  _614
REMARK  237  A    between atoms: _617  and  _619
REMARK  238  A    between atoms: _619  and  _620
REMARK  239  A    between atoms: _619  and  _622
REMARK  240  A    between atoms: _622  and  _623
REMARK  241  A    between atoms: _628  and  _630
REMARK  242  A    between atoms: _630  and  _631
REMARK  243  A    between atoms: _634  and  _636
REMARK  244  A    between atoms: _636  and  _637
REMARK  245  A    between atoms: _636  and  _639
REMARK  246  A    between atoms: _639  and  _640
REMARK  247  A    between atoms: _640  and  _641
REMARK  248  A    between atoms: _641  and  _642
REMARK  249  A    between atoms: _651  and  _653
REMARK  250  A    between atoms: _653  and  _654
REMARK  251  A    between atoms: _653  and  _656
REMARK  252  A    between atoms: _656  and  _657
REMARK  253  A    between atoms: _660  and  _662
REMARK  254  A    between atoms: _662  and  _663
REMARK  255  A    between atoms: _662  and  _665
REMARK  256  A    between atoms: _665  and  _666
REMARK  257  A    between atoms: _669  and  _671
REMARK  258  A    between atoms: _671  and  _672
REMARK  259  A    between atoms: _671  and  _674
REMARK  260  A    between atoms: _674  and  _675
REMARK                            x       y       z     vdW  Elec       q    Type
REMARK                         _______ _______ _______ _____ _____    ______ ____
ROOT
ATOM      1  O   HOH     1       7.890  15.479   6.675  0.00  0.00    +0.000 OA
ENDROOT
TORSDOF 0
REMARK  Name = ../refined-set-2016/1b32/1b32_pocket.pdb
REMARK  260 active torsions:
REMARK  status: ('A' for Active; 'I' for Inactive)
REMARK    1  A    between atoms: _1  and  _3
REMARK    2  A    between atoms: _3  and  _4
REMARK    3  A    between atoms: _3  and  _6
REMARK    4  A    between atoms: _6  and  _7
REMARK    5  A    between atoms: _12  and  _14
REMARK    6  A    between atoms: _14  and  _15
REMARK    7  A    between atoms: _14  and  _17
REMARK    8  A    between atoms: _17  and  _18
REMARK    9  A    between atoms: _20  and  _22
REMARK   10  A    between atoms: _22  and  _23
REMARK   11  A    between atoms: _22  and  _25
REMARK   12  A    between atoms: _25  and  _26
REMARK   13  A    between atoms: _26  and  _27
REMARK   14  A    between atoms: _32  and  _34
REMARK   15  A    between atoms: _34  and  _35
REMARK   16  A    between atoms: _34  and  _37
REMARK   17  A    between atoms: _37  and  _38
REMARK   18  A    between atoms: _41  and  _43
REMARK   19  A    between atoms: _43  and  _44
REMARK   20  A    between atoms: _43  and  _46
REMARK   21  A    between atoms: _46  and  _47
REMARK   22  A    between atoms: _47  and  _48
REMARK   23  A    between atoms: _51  and  _53
REMARK   24  A    between atoms: _53  and  _54
REMARK   25  A    between atoms: _56  and  _58
REMARK   26  A    between atoms: _58  and  _59
REMARK   27  A    between atoms: _58  and  _61
REMARK   28  A    between atoms: _65  and  _66
REMARK   29  A    between atoms: _71  and  _73
REMARK   30  A    between atoms: _73  and  _74
REMARK   31  A    between atoms: _73  and  _76
REMARK   32  A    between atoms: _76  and  _77
REMARK   33  A    between atoms: _77  and  _78
REMARK   34  A    between atoms: _81  and  _83
REMARK   35  A    between atoms: _83  and  _84
REMARK   36  A    between atoms: _83  and  _86
REMARK   37  A    between atoms: _86  and  _87
REMARK   38  A    between atoms: _89  and  _91
REMARK   39  A    between atoms: _91  and  _92
REMARK   40  A    between atoms: _91  and  _94
REMARK   41  A    between atoms: _94  and  _95
REMARK   42  A    between atoms: _100  and  _102
REMARK   43  A    between atoms: _102  and  _103
REMARK   44  A    between atoms: _102  and  _105
REMARK   45  A    between atoms: _105  and  _106
REMARK   46  A    between atoms: _106  and  _107
REMARK   47  A    between atoms: _107  and  _108
REMARK   48  A    between atoms: _118  and  _119
REMARK   49  A    between atoms: _124  and  _126
REMARK   50  A    between atoms: _126  and  _127
REMARK   51  A    between atoms: _126  and  _129
REMARK   52  A    between atoms: _129  and  _130
REMARK   53  A    between atoms: _135  and  _136
REMARK   54  A    between atoms: _138  and  _140
REMARK   55  A    between atoms: _140  and  _141
REMARK   56  A    between atoms: _140  and  _143
REMARK   57  A    between atoms: _143  and  _144
REMARK   58  A    between atoms: _149  and  _150
REMARK   59  A    between atoms: _152  and  _154
REMARK   60  A    between atoms: _154  and  _155
REMARK   61  A    between atoms: _154  and  _157
REMARK   62  A    between atoms: _160  and  _162
REMARK   63  A    between atoms: _162  and  _163
REMARK   64  A    between atoms: _162  and  _165
REMARK   65  A    between atoms: _165  and  _166
REMARK   66  A    between atoms: _172  and  _173
REMARK   67  A    between atoms: _178  and  _180
REMARK   68  A    between atoms: _180  and  _181
REMARK   69  A    between atoms: _180  and  _183
REMARK   70  A    between atoms: _183  and  _184
REMARK   71  A    between atoms: _186  and  _188
REMARK   72  A    between atoms: _188  and  _189
REMARK   73  A    between atoms: _188  and  _191
REMARK   74  A    between atoms: _191  and  _192
REMARK   75  A    between atoms: _197  and  _198
REMARK   76  A    between atoms: _200  and  _202
REMARK   77  A    between atoms: _202  and  _203
REMARK   78  A    between atoms: _202  and  _205
REMARK   79  A    between atoms: _205  and  _206
REMARK   80  A    between atoms: _211  and  _213
REMARK   81  A    between atoms: _213  and  _214
REMARK   82  A    between atoms: _213  and  _216
REMARK   83  A    between atoms: _216  and  _217
REMARK   84  A    between atoms: _222  and  _224
REMARK   85  A    between atoms: _224  and  _225
REMARK   86  A    between atoms: _224  and  _227
REMARK   87  A    between atoms: _227  and  _228
REMARK   88  A    between atoms: _228  and  _229
REMARK   89  A    between atoms: _231  and  _233
REMARK   90  A    between atoms: _233  and  _234
REMARK   91  A    between atoms: _233  and  _236
REMARK   92  A    between atoms: _236  and  _237
REMARK   93  A    between atoms: _242  and  _243
REMARK   94  A    between atoms: _245  and  _247
REMARK   95  A    between atoms: _247  and  _248
REMARK   96  A    between atoms: _247  and  _250
REMARK   97  A    between atoms: _250  and  _251
REMARK   98  A    between atoms: _254  and  _256
REMARK   99  A    between atoms: _256  and  _257
REMARK  100  A    between atoms: _256  and  _259
REMARK  101  A    between atoms: _259  and  _260
REMARK  102  A    between atoms: _260  and  _477
REMARK  103  A    between atoms: _261  and  _263
REMARK  104  A    between atoms: _263  and  _264
REMARK  105  A    between atoms: _263  and  _266
REMARK  106  A    between atoms: _266  and  _267
REMARK  107  A    between atoms: _270  and  _272
REMARK  108  A    between atoms: _272  and  _273
REMARK  109  A    between atoms: _272  and  _275
REMARK  110  A    between atoms: _275  and  _276
REMARK  111  A    between atoms: _281  and  _282
REMARK  112  A    between atoms: _284  and  _286
REMARK  113  A    between atoms: _286  and  _287
REMARK  114  A    between atoms: _286  and  _289
REMARK  115  A    between atoms: _289  and  _290
REMARK  116  A    between atoms: _295  and  _296
REMARK  117  A    between atoms: _298  and  _300
REMARK  118  A    between atoms: _300  and  _301
REMARK  119  A    between atoms: _300  and  _303
REMARK  120  A    between atoms: _303  and  _304
REMARK  121  A    between atoms: _304  and  _305
REMARK  122  A    between atoms: _308  and  _310
REMARK  123  A    between atoms: _310  and  _311
REMARK  124  A    between atoms: _310  and  _313
REMARK  125  A    between atoms: _313  and  _314
REMARK  126  A    between atoms: _319  and  _320
REMARK  127  A    between atoms: _322  and  _324
REMARK  128  A    between atoms: _324  and  _325
REMARK  129  A    between atoms: _324  and  _327
REMARK  130  A    between atoms: _327  and  _328
REMARK  131  A    between atoms: _333  and  _335
REMARK  132  A    between atoms: _335  and  _336
REMARK  133  A    between atoms: _335  and  _338
REMARK  134  A    between atoms: _338  and  _339
REMARK  135  A    between atoms: _342  and  _344
REMARK  136  A    between atoms: _344  and  _345
REMARK  137  A    between atoms: _344  and  _347
REMARK  138  A    between atoms: _347  and  _348
REMARK  139  A    between atoms: _353  and  _355
REMARK  140  A    between atoms: _355  and  _356
REMARK  141  A    between atoms: _355  and  _358
REMARK  142  A    between atoms: _358  and  _359
REMARK  143  A    between atoms: _369  and  _371
REMARK  144  A    between atoms: _371  and  _372
REMARK  145  A    between atoms: _371  and  _374
REMARK  146  A    between atoms: _374  and  _375
REMARK  147  A    between atoms: _381  and  _383
REMARK  148  A    between atoms: _383  and  _384
REMARK  149  A    between atoms: _383  and  _386
REMARK  150  A    between atoms: _386  and  _387
REMARK  151  A    between atoms: _390  and  _392
REMARK  152  A    between atoms: _392  and  _393
REMARK  153  A    between atoms: _392  and  _395
REMARK  154  A    between atoms: _395  and  _396
REMARK  155  A    between atoms: _399  and  _401
REMARK  156  A    between atoms: _401  and  _402
REMARK  157  A    between atoms: _401  and  _404
REMARK  158  A    between atoms: _404  and  _405
REMARK  159  A    between atoms: _405  and  _406
REMARK  160  A    between atoms: _406  and  _407
REMARK  161  A    between atoms: _416  and  _418
REMARK  162  A    between atoms: _418  and  _419
REMARK  163  A    between atoms: _418  and  _421
REMARK  164  A    between atoms: _421  and  _422
REMARK  165  A    between atoms: _427  and  _429
REMARK  166  A    between atoms: _429  and  _430
REMARK  167  A    between atoms: _429  and  _432
REMARK  168  A    between atoms: _432  and  _433
REMARK  169  A    between atoms: _433  and  _434
REMARK  170  A    between atoms: _434  and  _435
REMARK  171  A    between atoms: _444  and  _446
REMARK  172  A    between atoms: _446  and  _447
REMARK  173  A    between atoms: _450  and  _452
REMARK  174  A    between atoms: _452  and  _453
REMARK  175  A    between atoms: _455  and  _457
REMARK  176  A    between atoms: _457  and  _458
REMARK  177  A    between atoms: _457  and  _460
REMARK  178  A    between atoms: _460  and  _461
REMARK  179  A    between atoms: _471  and  _473
REMARK  180  A    between atoms: _473  and  _474
REMARK  181  A    between atoms: _473  and  _476
REMARK  182  A    between atoms: _476  and  _477
REMARK  183  A    between atoms: _478  and  _480
REMARK  184  A    between atoms: _480  and  _481
REMARK  185  A    between atoms: _484  and  _486
REMARK  186  A    between atoms: _486  and  _487
REMARK  187  A    between atoms: _486  and  _489
REMARK  188  A    between atoms: _489  and  _490
REMARK  189  A    between atoms: _493  and  _495
REMARK  190  A    between atoms: _495  and  _496
REMARK  191  A    between atoms: _495  and  _498
REMARK  192  A    between atoms: _498  and  _499
REMARK  193  A    between atoms: _504  and  _505
REMARK  194  A    between atoms: _507  and  _509
REMARK  195  A    between atoms: _509  and  _510
REMARK  196  A    between atoms: _509  and  _512
REMARK  197  A    between atoms: _512  and  _513
REMARK  198  A    between atoms: _515  and  _517
REMARK  199  A    between atoms: _517  and  _518
REMARK  200  A    between atoms: _517  and  _520
REMARK  201  A    between atoms: _520  and  _521
REMARK  202  A    between atoms: _527  and  _529
REMARK  203  A    between atoms: _529  and  _530
REMARK  204  A    between atoms: _529  and  _532
REMARK  205  A    between atoms: _532  and  _533
REMARK  206  A    between atoms: _536  and  _538
REMARK  207  A    between atoms: _538  and  _539
REMARK  208  A    between atoms: _538  and  _541
REMARK  209  A    between atoms: _541  and  _542
REMARK  210  A    between atoms: _544  and  _546
REMARK  211  A    between atoms: _546  and  _547
REMARK  212  A    between atoms: _546  and  _549
REMARK  213  A    between atoms: _549  and  _550
REMARK  214  A    between atoms: _555  and  _557
REMARK  215  A    between atoms: _557  and  _558
REMARK  216  A    between atoms: _557  and  _560
REMARK  217  A    between atoms: _560  and  _561
REMARK  218  A    between atoms: _566  and  _568
REMARK  219  A    between atoms: _568  and  _569
REMARK  220  A    between atoms: _568  and  _571
REMARK  221  A    between atoms: _571  and  _572
REMARK  222  A    between atoms: _575  and  _577
REMARK  223  A    between atoms: _577  and  _578
REMARK  224  A    between atoms: _581  and  _583
REMARK  225  A    between atoms: _583  and  _584
REMARK  226  A    between atoms: _583  and  _586
REMARK  227  A    between atoms: _586  and  _587
REMARK  228  A    between atoms: _592  and  _593
REMARK  229  A    between atoms: _595  and  _597
REMARK  230  A    between atoms: _597  and  _598
REMARK  231  A    between atoms: _597  and  _600
REMARK  232  A    between atoms: _600  and  _601
REMARK  233  A    between atoms: _606  and  _607
REMARK  234  A    between atoms: _609  and  _611
REMARK  235  A    between atoms: _611  and  _612
REMARK  236  A    between atoms: _611  and  _614
REMARK  237  A    between atoms: _617  and  _619
REMARK  238  A    between atoms: _619  and  _620
REMARK  239  A    between atoms: _619  and  _622
REMARK  240  A    between atoms: _622  and  _623
REMARK  241  A    between atoms: _628  and  _630
REMARK  242  A    between atoms: _630  and  _631
REMARK  243  A    between atoms: _634  and  _636
REMARK  244  A    between atoms: _636  and  _637
REMARK  245  A    between atoms: _636  and  _639
REMARK  246  A    between atoms: _639  and  _640
REMARK  247  A    between atoms: _640  and  _641
REMARK  248  A    between atoms: _641  and  _642
REMARK  249  A    between atoms: _651  and  _653
REMARK  250  A    between atoms: _653  and  _654
REMARK  251  A    between atoms: _653  and  _656
REMARK  252  A    between atoms: _656  and  _657
REMARK  253  A    between atoms: _660  and  _662
REMARK  254  A    between atoms: _662  and  _663
REMARK  255  A    between atoms: _662  and  _665
REMARK  256  A    between atoms: _665  and  _666
REMARK  257  A    between atoms: _669  and  _671
REMARK  258  A    between atoms: _671  and  _672
REMARK  259  A    between atoms: _671  and  _674
REMARK  260  A    between atoms: _674  and  _675
REMARK                            x       y       z     vdW  Elec       q    Type
REMARK                         _______ _______ _______ _____ _____    ______ ____
ROOT
ATOM      1  O   HOH     1      -7.275  23.693  12.238  0.00  0.00    +0.000 OA
ENDROOT
TORSDOF 0
REMARK  Name = ../refined-set-2016/1b32/1b32_pocket.pdb
REMARK  260 active torsions:
REMARK  status: ('A' for Active; 'I' for Inactive)
REMARK    1  A    between atoms: _1  and  _3
REMARK    2  A    between atoms: _3  and  _4
REMARK    3  A    between atoms: _3  and  _6
REMARK    4  A    between atoms: _6  and  _7
REMARK    5  A    between atoms: _12  and  _14
REMARK    6  A    between atoms: _14  and  _15
REMARK    7  A    between atoms: _14  and  _17
REMARK    8  A    between atoms: _17  and  _18
REMARK    9  A    between atoms: _20  and  _22
REMARK   10  A    between atoms: _22  and  _23
REMARK   11  A    between atoms: _22  and  _25
REMARK   12  A    between atoms: _25  and  _26
REMARK   13  A    between atoms: _26  and  _27
REMARK   14  A    between atoms: _32  and  _34
REMARK   15  A    between atoms: _34  and  _35
REMARK   16  A    between atoms: _34  and  _37
REMARK   17  A    between atoms: _37  and  _38
REMARK   18  A    between atoms: _41  and  _43
REMARK   19  A    between atoms: _43  and  _44
REMARK   20  A    between atoms: _43  and  _46
REMARK   21  A    between atoms: _46  and  _47
REMARK   22  A    between atoms: _47  and  _48
REMARK   23  A    between atoms: _51  and  _53
REMARK   24  A    between atoms: _53  and  _54
REMARK   25  A    between atoms: _56  and  _58
REMARK   26  A    between atoms: _58  and  _59
REMARK   27  A    between atoms: _58  and  _61
REMARK   28  A    between atoms: _65  and  _66
REMARK   29  A    between atoms: _71  and  _73
REMARK   30  A    between atoms: _73  and  _74
REMARK   31  A    between atoms: _73  and  _76
REMARK   32  A    between atoms: _76  and  _77
REMARK   33  A    between atoms: _77  and  _78
REMARK   34  A    between atoms: _81  and  _83
REMARK   35  A    between atoms: _83  and  _84
REMARK   36  A    between atoms: _83  and  _86
REMARK   37  A    between atoms: _86  and  _87
REMARK   38  A    between atoms: _89  and  _91
REMARK   39  A    between atoms: _91  and  _92
REMARK   40  A    between atoms: _91  and  _94
REMARK   41  A    between atoms: _94  and  _95
REMARK   42  A    between atoms: _100  and  _102
REMARK   43  A    between atoms: _102  and  _103
REMARK   44  A    between atoms: _102  and  _105
REMARK   45  A    between atoms: _105  and  _106
REMARK   46  A    between atoms: _106  and  _107
REMARK   47  A    between atoms: _107  and  _108
REMARK   48  A    between atoms: _118  and  _119
REMARK   49  A    between atoms: _124  and  _126
REMARK   50  A    between atoms: _126  and  _127
REMARK   51  A    between atoms: _126  and  _129
REMARK   52  A    between atoms: _129  and  _130
REMARK   53  A    between atoms: _135  and  _136
REMARK   54  A    between atoms: _138  and  _140
REMARK   55  A    between atoms: _140  and  _141
REMARK   56  A    between atoms: _140  and  _143
REMARK   57  A    between atoms: _143  and  _144
REMARK   58  A    between atoms: _149  and  _150
REMARK   59  A    between atoms: _152  and  _154
REMARK   60  A    between atoms: _154  and  _155
REMARK   61  A    between atoms: _154  and  _157
REMARK   62  A    between atoms: _160  and  _162
REMARK   63  A    between atoms: _162  and  _163
REMARK   64  A    between atoms: _162  and  _165
REMARK   65  A    between atoms: _165  and  _166
REMARK   66  A    between atoms: _172  and  _173
REMARK   67  A    between atoms: _178  and  _180
REMARK   68  A    between atoms: _180  and  _181
REMARK   69  A    between atoms: _180  and  _183
REMARK   70  A    between atoms: _183  and  _184
REMARK   71  A    between atoms: _186  and  _188
REMARK   72  A    between atoms: _188  and  _189
REMARK   73  A    between atoms: _188  and  _191
REMARK   74  A    between atoms: _191  and  _192
REMARK   75  A    between atoms: _197  and  _198
REMARK   76  A    between atoms: _200  and  _202
REMARK   77  A    between atoms: _202  and  _203
REMARK   78  A    between atoms: _202  and  _205
REMARK   79  A    between atoms: _205  and  _206
REMARK   80  A    between atoms: _211  and  _213
REMARK   81  A    between atoms: _213  and  _214
REMARK   82  A    between atoms: _213  and  _216
REMARK   83  A    between atoms: _216  and  _217
REMARK   84  A    between atoms: _222  and  _224
REMARK   85  A    between atoms: _224  and  _225
REMARK   86  A    between atoms: _224  and  _227
REMARK   87  A    between atoms: _227  and  _228
REMARK   88  A    between atoms: _228  and  _229
REMARK   89  A    between atoms: _231  and  _233
REMARK   90  A    between atoms: _233  and  _234
REMARK   91  A    between atoms: _233  and  _236
REMARK   92  A    between atoms: _236  and  _237
REMARK   93  A    between atoms: _242  and  _243
REMARK   94  A    between atoms: _245  and  _247
REMARK   95  A    between atoms: _247  and  _248
REMARK   96  A    between atoms: _247  and  _250
REMARK   97  A    between atoms: _250  and  _251
REMARK   98  A    between atoms: _254  and  _256
REMARK   99  A    between atoms: _256  and  _257
REMARK  100  A    between atoms: _256  and  _259
REMARK  101  A    between atoms: _259  and  _260
REMARK  102  A    between atoms: _260  and  _477
REMARK  103  A    between atoms: _261  and  _263
REMARK  104  A    between atoms: _263  and  _264
REMARK  105  A    between atoms: _263  and  _266
REMARK  106  A    between atoms: _266  and  _267
REMARK  107  A    between atoms: _270  and  _272
REMARK  108  A    between atoms: _272  and  _273
REMARK  109  A    between atoms: _272  and  _275
REMARK  110  A    between atoms: _275  and  _276
REMARK  111  A    between atoms: _281  and  _282
REMARK  112  A    between atoms: _284  and  _286
REMARK  113  A    between atoms: _286  and  _287
REMARK  114  A    between atoms: _286  and  _289
REMARK  115  A    between atoms: _289  and  _290
REMARK  116  A    between atoms: _295  and  _296
REMARK  117  A    between atoms: _298  and  _300
REMARK  118  A    between atoms: _300  and  _301
REMARK  119  A    between atoms: _300  and  _303
REMARK  120  A    between atoms: _303  and  _304
REMARK  121  A    between atoms: _304  and  _305
REMARK  122  A    between atoms: _308  and  _310
REMARK  123  A    between atoms: _310  and  _311
REMARK  124  A    between atoms: _310  and  _313
REMARK  125  A    between atoms: _313  and  _314
REMARK  126  A    between atoms: _319  and  _320
REMARK  127  A    between atoms: _322  and  _324
REMARK  128  A    between atoms: _324  and  _325
REMARK  129  A    between atoms: _324  and  _327
REMARK  130  A    between atoms: _327  and  _328
REMARK  131  A    between atoms: _333  and  _335
REMARK  132  A    between atoms: _335  and  _336
REMARK  133  A    between atoms: _335  and  _338
REMARK  134  A    between atoms: _338  and  _339
REMARK  135  A    between atoms: _342  and  _344
REMARK  136  A    between atoms: _344  and  _345
REMARK  137  A    between atoms: _344  and  _347
REMARK  138  A    between atoms: _347  and  _348
REMARK  139  A    between atoms: _353  and  _355
REMARK  140  A    between atoms: _355  and  _356
REMARK  141  A    between atoms: _355  and  _358
REMARK  142  A    between atoms: _358  and  _359
REMARK  143  A    between atoms: _369  and  _371
REMARK  144  A    between atoms: _371  and  _372
REMARK  145  A    between atoms: _371  and  _374
REMARK  146  A    between atoms: _374  and  _375
REMARK  147  A    between atoms: _381  and  _383
REMARK  148  A    between atoms: _383  and  _384
REMARK  149  A    between atoms: _383  and  _386
REMARK  150  A    between atoms: _386  and  _387
REMARK  151  A    between atoms: _390  and  _392
REMARK  152  A    between atoms: _392  and  _393
REMARK  153  A    between atoms: _392  and  _395
REMARK  154  A    between atoms: _395  and  _396
REMARK  155  A    between atoms: _399  and  _401
REMARK  156  A    between atoms: _401  and  _402
REMARK  157  A    between atoms: _401  and  _404
REMARK  158  A    between atoms: _404  and  _405
REMARK  159  A    between atoms: _405  and  _406
REMARK  160  A    between atoms: _406  and  _407
REMARK  161  A    between atoms: _416  and  _418
REMARK  162  A    between atoms: _418  and  _419
REMARK  163  A    between atoms: _418  and  _421
REMARK  164  A    between atoms: _421  and  _422
REMARK  165  A    between atoms: _427  and  _429
REMARK  166  A    between atoms: _429  and  _430
REMARK  167  A    between atoms: _429  and  _432
REMARK  168  A    between atoms: _432  and  _433
REMARK  169  A    between atoms: _433  and  _434
REMARK  170  A    between atoms: _434  and  _435
REMARK  171  A    between atoms: _444  and  _446
REMARK  172  A    between atoms: _446  and  _447
REMARK  173  A    between atoms: _450  and  _452
REMARK  174  A    between atoms: _452  and  _453
REMARK  175  A    between atoms: _455  and  _457
REMARK  176  A    between atoms: _457  and  _458
REMARK  177  A    between atoms: _457  and  _460
REMARK  178  A    between atoms: _460  and  _461
REMARK  179  A    between atoms: _471  and  _473
REMARK  180  A    between atoms: _473  and  _474
REMARK  181  A    between atoms: _473  and  _476
REMARK  182  A    between atoms: _476  and  _477
REMARK  183  A    between atoms: _478  and  _480
REMARK  184  A    between atoms: _480  and  _481
REMARK  185  A    between atoms: _484  and  _486
REMARK  186  A    between atoms: _486  and  _487
REMARK  187  A    between atoms: _486  and  _489
REMARK  188  A    between atoms: _489  and  _490
REMARK  189  A    between atoms: _493  and  _495
REMARK  190  A    between atoms: _495  and  _496
REMARK  191  A    between atoms: _495  and  _498
REMARK  192  A    between atoms: _498  and  _499
REMARK  193  A    between atoms: _504  and  _505
REMARK  194  A    between atoms: _507  and  _509
REMARK  195  A    between atoms: _509  and  _510
REMARK  196  A    between atoms: _509  and  _512
REMARK  197  A    between atoms: _512  and  _513
REMARK  198  A    between atoms: _515  and  _517
REMARK  199  A    between atoms: _517  and  _518
REMARK  200  A    between atoms: _517  and  _520
REMARK  201  A    between atoms: _520  and  _521
REMARK  202  A    between atoms: _527  and  _529
REMARK  203  A    between atoms: _529  and  _530
REMARK  204  A    between atoms: _529  and  _532
REMARK  205  A    between atoms: _532  and  _533
REMARK  206  A    between atoms: _536  and  _538
REMARK  207  A    between atoms: _538  and  _539
REMARK  208  A    between atoms: _538  and  _541
REMARK  209  A    between atoms: _541  and  _542
REMARK  210  A    between atoms: _544  and  _546
REMARK  211  A    between atoms: _546  and  _547
REMARK  212  A    between atoms: _546  and  _549
REMARK  213  A    between atoms: _549  and  _550
REMARK  214  A    between atoms: _555  and  _557
REMARK  215  A    between atoms: _557  and  _558
REMARK  216  A    between atoms: _557  and  _560
REMARK  217  A    between atoms: _560  and  _561
REMARK  218  A    between atoms: _566  and  _568
REMARK  219  A    between atoms: _568  and  _569
REMARK  220  A    between atoms: _568  and  _571
REMARK  221  A    between atoms: _571  and  _572
REMARK  222  A    between atoms: _575  and  _577
REMARK  223  A    between atoms: _577  and  _578
REMARK  224  A    between atoms: _581  and  _583
REMARK  225  A    between atoms: _583  and  _584
REMARK  226  A    between atoms: _583  and  _586
REMARK  227  A    between atoms: _586  and  _587
REMARK  228  A    between atoms: _592  and  _593
REMARK  229  A    between atoms: _595  and  _597
REMARK  230  A    between atoms: _597  and  _598
REMARK  231  A    between atoms: _597  and  _600
REMARK  232  A    between atoms: _600  and  _601
REMARK  233  A    between atoms: _606  and  _607
REMARK  234  A    between atoms: _609  and  _611
REMARK  235  A    between atoms: _611  and  _612
REMARK  236  A    between atoms: _611  and  _614
REMARK  237  A    between atoms: _617  and  _619
REMARK  238  A    between atoms: _619  and  _620
REMARK  239  A    between atoms: _619  and  _622
REMARK  240  A    between atoms: _622  and  _623
REMARK  241  A    between atoms: _628  and  _630
REMARK  242  A    between atoms: _630  and  _631
REMARK  243  A    between atoms: _634  and  _636
REMARK  244  A    between atoms: _636  and  _637
REMARK  245  A    between atoms: _636  and  _639
REMARK  246  A    between atoms: _639  and  _640
REMARK  247  A    between atoms: _640  and  _641
REMARK  248  A    between atoms: _641  and  _642
REMARK  249  A    between atoms: _651  and  _653
REMARK  250  A    between atoms: _653  and  _654
REMARK  251  A    between atoms: _653  and  _656
REMARK  252  A    between atoms: _656  and  _657
REMARK  253  A    between atoms: _660  and  _662
REMARK  254  A    between atoms: _662  and  _663
REMARK  255  A    between atoms: _662  and  _665
REMARK  256  A    between atoms: _665  and  _666
REMARK  257  A    between atoms: _669  and  _671
REMARK  258  A    between atoms: _671  and  _672
REMARK  259  A    between atoms: _671  and  _674
REMARK  260  A    between atoms: _674  and  _675
REMARK                            x       y       z     vdW  Elec       q    Type
REMARK                         _______ _______ _______ _____ _____    ______ ____
ROOT
ATOM      1  O   HOH     1       1.644  14.450  11.269  0.00  0.00    +0.000 OA
ENDROOT
TORSDOF 0
REMARK  Name = ../refined-set-2016/1b32/1b32_pocket.pdb
REMARK  260 active torsions:
REMARK  status: ('A' for Active; 'I' for Inactive)
REMARK    1  A    between atoms: _1  and  _3
REMARK    2  A    between atoms: _3  and  _4
REMARK    3  A    between atoms: _3  and  _6
REMARK    4  A    between atoms: _6  and  _7
REMARK    5  A    between atoms: _12  and  _14
REMARK    6  A    between atoms: _14  and  _15
REMARK    7  A    between atoms: _14  and  _17
REMARK    8  A    between atoms: _17  and  _18
REMARK    9  A    between atoms: _20  and  _22
REMARK   10  A    between atoms: _22  and  _23
REMARK   11  A    between atoms: _22  and  _25
REMARK   12  A    between atoms: _25  and  _26
REMARK   13  A    between atoms: _26  and  _27
REMARK   14  A    between atoms: _32  and  _34
REMARK   15  A    between atoms: _34  and  _35
REMARK   16  A    between atoms: _34  and  _37
REMARK   17  A    between atoms: _37  and  _38
REMARK   18  A    between atoms: _41  and  _43
REMARK   19  A    between atoms: _43  and  _44
REMARK   20  A    between atoms: _43  and  _46
REMARK   21  A    between atoms: _46  and  _47
REMARK   22  A    between atoms: _47  and  _48
REMARK   23  A    between atoms: _51  and  _53
REMARK   24  A    between atoms: _53  and  _54
REMARK   25  A    between atoms: _56  and  _58
REMARK   26  A    between atoms: _58  and  _59
REMARK   27  A    between atoms: _58  and  _61
REMARK   28  A    between atoms: _65  and  _66
REMARK   29  A    between atoms: _71  and  _73
REMARK   30  A    between atoms: _73  and  _74
REMARK   31  A    between atoms: _73  and  _76
REMARK   32  A    between atoms: _76  and  _77
REMARK   33  A    between atoms: _77  and  _78
REMARK   34  A    between atoms: _81  and  _83
REMARK   35  A    between atoms: _83  and  _84
REMARK   36  A    between atoms: _83  and  _86
REMARK   37  A    between atoms: _86  and  _87
REMARK   38  A    between atoms: _89  and  _91
REMARK   39  A    between atoms: _91  and  _92
REMARK   40  A    between atoms: _91  and  _94
REMARK   41  A    between atoms: _94  and  _95
REMARK   42  A    between atoms: _100  and  _102
REMARK   43  A    between atoms: _102  and  _103
REMARK   44  A    between atoms: _102  and  _105
REMARK   45  A    between atoms: _105  and  _106
REMARK   46  A    between atoms: _106  and  _107
REMARK   47  A    between atoms: _107  and  _108
REMARK   48  A    between atoms: _118  and  _119
REMARK   49  A    between atoms: _124  and  _126
REMARK   50  A    between atoms: _126  and  _127
REMARK   51  A    between atoms: _126  and  _129
REMARK   52  A    between atoms: _129  and  _130
REMARK   53  A    between atoms: _135  and  _136
REMARK   54  A    between atoms: _138  and  _140
REMARK   55  A    between atoms: _140  and  _141
REMARK   56  A    between atoms: _140  and  _143
REMARK   57  A    between atoms: _143  and  _144
REMARK   58  A    between atoms: _149  and  _150
REMARK   59  A    between atoms: _152  and  _154
REMARK   60  A    between atoms: _154  and  _155
REMARK   61  A    between atoms: _154  and  _157
REMARK   62  A    between atoms: _160  and  _162
REMARK   63  A    between atoms: _162  and  _163
REMARK   64  A    between atoms: _162  and  _165
REMARK   65  A    between atoms: _165  and  _166
REMARK   66  A    between atoms: _172  and  _173
REMARK   67  A    between atoms: _178  and  _180
REMARK   68  A    between atoms: _180  and  _181
REMARK   69  A    between atoms: _180  and  _183
REMARK   70  A    between atoms: _183  and  _184
REMARK   71  A    between atoms: _186  and  _188
REMARK   72  A    between atoms: _188  and  _189
REMARK   73  A    between atoms: _188  and  _191
REMARK   74  A    between atoms: _191  and  _192
REMARK   75  A    between atoms: _197  and  _198
REMARK   76  A    between atoms: _200  and  _202
REMARK   77  A    between atoms: _202  and  _203
REMARK   78  A    between atoms: _202  and  _205
REMARK   79  A    between atoms: _205  and  _206
REMARK   80  A    between atoms: _211  and  _213
REMARK   81  A    between atoms: _213  and  _214
REMARK   82  A    between atoms: _213  and  _216
REMARK   83  A    between atoms: _216  and  _217
REMARK   84  A    between atoms: _222  and  _224
REMARK   85  A    between atoms: _224  and  _225
REMARK   86  A    between atoms: _224  and  _227
REMARK   87  A    between atoms: _227  and  _228
REMARK   88  A    between atoms: _228  and  _229
REMARK   89  A    between atoms: _231  and  _233
REMARK   90  A    between atoms: _233  and  _234
REMARK   91  A    between atoms: _233  and  _236
REMARK   92  A    between atoms: _236  and  _237
REMARK   93  A    between atoms: _242  and  _243
REMARK   94  A    between atoms: _245  and  _247
REMARK   95  A    between atoms: _247  and  _248
REMARK   96  A    between atoms: _247  and  _250
REMARK   97  A    between atoms: _250  and  _251
REMARK   98  A    between atoms: _254  and  _256
REMARK   99  A    between atoms: _256  and  _257
REMARK  100  A    between atoms: _256  and  _259
REMARK  101  A    between atoms: _259  and  _260
REMARK  102  A    between atoms: _260  and  _477
REMARK  103  A    between atoms: _261  and  _263
REMARK  104  A    between atoms: _263  and  _264
REMARK  105  A    between atoms: _263  and  _266
REMARK  106  A    between atoms: _266  and  _267
REMARK  107  A    between atoms: _270  and  _272
REMARK  108  A    between atoms: _272  and  _273
REMARK  109  A    between atoms: _272  and  _275
REMARK  110  A    between atoms: _275  and  _276
REMARK  111  A    between atoms: _281  and  _282
REMARK  112  A    between atoms: _284  and  _286
REMARK  113  A    between atoms: _286  and  _287
REMARK  114  A    between atoms: _286  and  _289
REMARK  115  A    between atoms: _289  and  _290
REMARK  116  A    between atoms: _295  and  _296
REMARK  117  A    between atoms: _298  and  _300
REMARK  118  A    between atoms: _300  and  _301
REMARK  119  A    between atoms: _300  and  _303
REMARK  120  A    between atoms: _303  and  _304
REMARK  121  A    between atoms: _304  and  _305
REMARK  122  A    between atoms: _308  and  _310
REMARK  123  A    between atoms: _310  and  _311
REMARK  124  A    between atoms: _310  and  _313
REMARK  125  A    between atoms: _313  and  _314
REMARK  126  A    between atoms: _319  and  _320
REMARK  127  A    between atoms: _322  and  _324
REMARK  128  A    between atoms: _324  and  _325
REMARK  129  A    between atoms: _324  and  _327
REMARK  130  A    between atoms: _327  and  _328
REMARK  131  A    between atoms: _333  and  _335
REMARK  132  A    between atoms: _335  and  _336
REMARK  133  A    between atoms: _335  and  _338
REMARK  134  A    between atoms: _338  and  _339
REMARK  135  A    between atoms: _342  and  _344
REMARK  136  A    between atoms: _344  and  _345
REMARK  137  A    between atoms: _344  and  _347
REMARK  138  A    between atoms: _347  and  _348
REMARK  139  A    between atoms: _353  and  _355
REMARK  140  A    between atoms: _355  and  _356
REMARK  141  A    between atoms: _355  and  _358
REMARK  142  A    between atoms: _358  and  _359
REMARK  143  A    between atoms: _369  and  _371
REMARK  144  A    between atoms: _371  and  _372
REMARK  145  A    between atoms: _371  and  _374
REMARK  146  A    between atoms: _374  and  _375
REMARK  147  A    between atoms: _381  and  _383
REMARK  148  A    between atoms: _383  and  _384
REMARK  149  A    between atoms: _383  and  _386
REMARK  150  A    between atoms: _386  and  _387
REMARK  151  A    between atoms: _390  and  _392
REMARK  152  A    between atoms: _392  and  _393
REMARK  153  A    between atoms: _392  and  _395
REMARK  154  A    between atoms: _395  and  _396
REMARK  155  A    between atoms: _399  and  _401
REMARK  156  A    between atoms: _401  and  _402
REMARK  157  A    between atoms: _401  and  _404
REMARK  158  A    between atoms: _404  and  _405
REMARK  159  A    between atoms: _405  and  _406
REMARK  160  A    between atoms: _406  and  _407
REMARK  161  A    between atoms: _416  and  _418
REMARK  162  A    between atoms: _418  and  _419
REMARK  163  A    between atoms: _418  and  _421
REMARK  164  A    between atoms: _421  and  _422
REMARK  165  A    between atoms: _427  and  _429
REMARK  166  A    between atoms: _429  and  _430
REMARK  167  A    between atoms: _429  and  _432
REMARK  168  A    between atoms: _432  and  _433
REMARK  169  A    between atoms: _433  and  _434
REMARK  170  A    between atoms: _434  and  _435
REMARK  171  A    between atoms: _444  and  _446
REMARK  172  A    between atoms: _446  and  _447
REMARK  173  A    between atoms: _450  and  _452
REMARK  174  A    between atoms: _452  and  _453
REMARK  175  A    between atoms: _455  and  _457
REMARK  176  A    between atoms: _457  and  _458
REMARK  177  A    between atoms: _457  and  _460
REMARK  178  A    between atoms: _460  and  _461
REMARK  179  A    between atoms: _471  and  _473
REMARK  180  A    between atoms: _473  and  _474
REMARK  181  A    between atoms: _473  and  _476
REMARK  182  A    between atoms: _476  and  _477
REMARK  183  A    between atoms: _478  and  _480
REMARK  184  A    between atoms: _480  and  _481
REMARK  185  A    between atoms: _484  and  _486
REMARK  186  A    between atoms: _486  and  _487
REMARK  187  A    between atoms: _486  and  _489
REMARK  188  A    between atoms: _489  and  _490
REMARK  189  A    between atoms: _493  and  _495
REMARK  190  A    between atoms: _495  and  _496
REMARK  191  A    between atoms: _495  and  _498
REMARK  192  A    between atoms: _498  and  _499
REMARK  193  A    between atoms: _504  and  _505
REMARK  194  A    between atoms: _507  and  _509
REMARK  195  A    between atoms: _509  and  _510
REMARK  196  A    between atoms: _509  and  _512
REMARK  197  A    between atoms: _512  and  _513
REMARK  198  A    between atoms: _515  and  _517
REMARK  199  A    between atoms: _517  and  _518
REMARK  200  A    between atoms: _517  and  _520
REMARK  201  A    between atoms: _520  and  _521
REMARK  202  A    between atoms: _527  and  _529
REMARK  203  A    between atoms: _529  and  _530
REMARK  204  A    between atoms: _529  and  _532
REMARK  205  A    between atoms: _532  and  _533
REMARK  206  A    between atoms: _536  and  _538
REMARK  207  A    between atoms: _538  and  _539
REMARK  208  A    between atoms: _538  and  _541
REMARK  209  A    between atoms: _541  and  _542
REMARK  210  A    between atoms: _544  and  _546
REMARK  211  A    between atoms: _546  and  _547
REMARK  212  A    between atoms: _546  and  _549
REMARK  213  A    between atoms: _549  and  _550
REMARK  214  A    between atoms: _555  and  _557
REMARK  215  A    between atoms: _557  and  _558
REMARK  216  A    between atoms: _557  and  _560
REMARK  217  A    between atoms: _560  and  _561
REMARK  218  A    between atoms: _566  and  _568
REMARK  219  A    between atoms: _568  and  _569
REMARK  220  A    between atoms: _568  and  _571
REMARK  221  A    between atoms: _571  and  _572
REMARK  222  A    between atoms: _575  and  _577
REMARK  223  A    between atoms: _577  and  _578
REMARK  224  A    between atoms: _581  and  _583
REMARK  225  A    between atoms: _583  and  _584
REMARK  226  A    between atoms: _583  and  _586
REMARK  227  A    between atoms: _586  and  _587
REMARK  228  A    between atoms: _592  and  _593
REMARK  229  A    between atoms: _595  and  _597
REMARK  230  A    between atoms: _597  and  _598
REMARK  231  A    between atoms: _597  and  _600
REMARK  232  A    between atoms: _600  and  _601
REMARK  233  A    between atoms: _606  and  _607
REMARK  234  A    between atoms: _609  and  _611
REMARK  235  A    between atoms: _611  and  _612
REMARK  236  A    between atoms: _611  and  _614
REMARK  237  A    between atoms: _617  and  _619
REMARK  238  A    between atoms: _619  and  _620
REMARK  239  A    between atoms: _619  and  _622
REMARK  240  A    between atoms: _622  and  _623
REMARK  241  A    between atoms: _628  and  _630
REMARK  242  A    between atoms: _630  and  _631
REMARK  243  A    between atoms: _634  and  _636
REMARK  244  A    between atoms: _636  and  _637
REMARK  245  A    between atoms: _636  and  _639
REMARK  246  A    between atoms: _639  and  _640
REMARK  247  A    between atoms: _640  and  _641
REMARK  248  A    between atoms: _641  and  _642
REMARK  249  A    between atoms: _651  and  _653
REMARK  250  A    between atoms: _653  and  _654
REMARK  251  A    between atoms: _653  and  _656
REMARK  252  A    between atoms: _656  and  _657
REMARK  253  A    between atoms: _660  and  _662
REMARK  254  A    between atoms: _662  and  _663
REMARK  255  A    between atoms: _662  and  _665
REMARK  256  A    between atoms: _665  and  _666
REMARK  257  A    between atoms: _669  and  _671
REMARK  258  A    between atoms: _671  and  _672
REMARK  259  A    between atoms: _671  and  _674
REMARK  260  A    between atoms: _674  and  _675
REMARK                            x       y       z     vdW  Elec       q    Type
REMARK                         _______ _______ _______ _____ _____    ______ ____
ROOT
ATOM      1  O   HOH     1       5.969   7.942   7.404  0.00  0.00    +0.000 OA
ENDROOT
TORSDOF 0
REMARK  Name = ../refined-set-2016/1b32/1b32_pocket.pdb
REMARK  260 active torsions:
REMARK  status: ('A' for Active; 'I' for Inactive)
REMARK    1  A    between atoms: _1  and  _3
REMARK    2  A    between atoms: _3  and  _4
REMARK    3  A    between atoms: _3  and  _6
REMARK    4  A    between atoms: _6  and  _7
REMARK    5  A    between atoms: _12  and  _14
REMARK    6  A    between atoms: _14  and  _15
REMARK    7  A    between atoms: _14  and  _17
REMARK    8  A    between atoms: _17  and  _18
REMARK    9  A    between atoms: _20  and  _22
REMARK   10  A    between atoms: _22  and  _23
REMARK   11  A    between atoms: _22  and  _25
REMARK   12  A    between atoms: _25  and  _26
REMARK   13  A    between atoms: _26  and  _27
REMARK   14  A    between atoms: _32  and  _34
REMARK   15  A    between atoms: _34  and  _35
REMARK   16  A    between atoms: _34  and  _37
REMARK   17  A    between atoms: _37  and  _38
REMARK   18  A    between atoms: _41  and  _43
REMARK   19  A    between atoms: _43  and  _44
REMARK   20  A    between atoms: _43  and  _46
REMARK   21  A    between atoms: _46  and  _47
REMARK   22  A    between atoms: _47  and  _48
REMARK   23  A    between atoms: _51  and  _53
REMARK   24  A    between atoms: _53  and  _54
REMARK   25  A    between atoms: _56  and  _58
REMARK   26  A    between atoms: _58  and  _59
REMARK   27  A    between atoms: _58  and  _61
REMARK   28  A    between atoms: _65  and  _66
REMARK   29  A    between atoms: _71  and  _73
REMARK   30  A    between atoms: _73  and  _74
REMARK   31  A    between atoms: _73  and  _76
REMARK   32  A    between atoms: _76  and  _77
REMARK   33  A    between atoms: _77  and  _78
REMARK   34  A    between atoms: _81  and  _83
REMARK   35  A    between atoms: _83  and  _84
REMARK   36  A    between atoms: _83  and  _86
REMARK   37  A    between atoms: _86  and  _87
REMARK   38  A    between atoms: _89  and  _91
REMARK   39  A    between atoms: _91  and  _92
REMARK   40  A    between atoms: _91  and  _94
REMARK   41  A    between atoms: _94  and  _95
REMARK   42  A    between atoms: _100  and  _102
REMARK   43  A    between atoms: _102  and  _103
REMARK   44  A    between atoms: _102  and  _105
REMARK   45  A    between atoms: _105  and  _106
REMARK   46  A    between atoms: _106  and  _107
REMARK   47  A    between atoms: _107  and  _108
REMARK   48  A    between atoms: _118  and  _119
REMARK   49  A    between atoms: _124  and  _126
REMARK   50  A    between atoms: _126  and  _127
REMARK   51  A    between atoms: _126  and  _129
REMARK   52  A    between atoms: _129  and  _130
REMARK   53  A    between atoms: _135  and  _136
REMARK   54  A    between atoms: _138  and  _140
REMARK   55  A    between atoms: _140  and  _141
REMARK   56  A    between atoms: _140  and  _143
REMARK   57  A    between atoms: _143  and  _144
REMARK   58  A    between atoms: _149  and  _150
REMARK   59  A    between atoms: _152  and  _154
REMARK   60  A    between atoms: _154  and  _155
REMARK   61  A    between atoms: _154  and  _157
REMARK   62  A    between atoms: _160  and  _162
REMARK   63  A    between atoms: _162  and  _163
REMARK   64  A    between atoms: _162  and  _165
REMARK   65  A    between atoms: _165  and  _166
REMARK   66  A    between atoms: _172  and  _173
REMARK   67  A    between atoms: _178  and  _180
REMARK   68  A    between atoms: _180  and  _181
REMARK   69  A    between atoms: _180  and  _183
REMARK   70  A    between atoms: _183  and  _184
REMARK   71  A    between atoms: _186  and  _188
REMARK   72  A    between atoms: _188  and  _189
REMARK   73  A    between atoms: _188  and  _191
REMARK   74  A    between atoms: _191  and  _192
REMARK   75  A    between atoms: _197  and  _198
REMARK   76  A    between atoms: _200  and  _202
REMARK   77  A    between atoms: _202  and  _203
REMARK   78  A    between atoms: _202  and  _205
REMARK   79  A    between atoms: _205  and  _206
REMARK   80  A    between atoms: _211  and  _213
REMARK   81  A    between atoms: _213  and  _214
REMARK   82  A    between atoms: _213  and  _216
REMARK   83  A    between atoms: _216  and  _217
REMARK   84  A    between atoms: _222  and  _224
REMARK   85  A    between atoms: _224  and  _225
REMARK   86  A    between atoms: _224  and  _227
REMARK   87  A    between atoms: _227  and  _228
REMARK   88  A    between atoms: _228  and  _229
REMARK   89  A    between atoms: _231  and  _233
REMARK   90  A    between atoms: _233  and  _234
REMARK   91  A    between atoms: _233  and  _236
REMARK   92  A    between atoms: _236  and  _237
REMARK   93  A    between atoms: _242  and  _243
REMARK   94  A    between atoms: _245  and  _247
REMARK   95  A    between atoms: _247  and  _248
REMARK   96  A    between atoms: _247  and  _250
REMARK   97  A    between atoms: _250  and  _251
REMARK   98  A    between atoms: _254  and  _256
REMARK   99  A    between atoms: _256  and  _257
REMARK  100  A    between atoms: _256  and  _259
REMARK  101  A    between atoms: _259  and  _260
REMARK  102  A    between atoms: _260  and  _477
REMARK  103  A    between atoms: _261  and  _263
REMARK  104  A    between atoms: _263  and  _264
REMARK  105  A    between atoms: _263  and  _266
REMARK  106  A    between atoms: _266  and  _267
REMARK  107  A    between atoms: _270  and  _272
REMARK  108  A    between atoms: _272  and  _273
REMARK  109  A    between atoms: _272  and  _275
REMARK  110  A    between atoms: _275  and  _276
REMARK  111  A    between atoms: _281  and  _282
REMARK  112  A    between atoms: _284  and  _286
REMARK  113  A    between atoms: _286  and  _287
REMARK  114  A    between atoms: _286  and  _289
REMARK  115  A    between atoms: _289  and  _290
REMARK  116  A    between atoms: _295  and  _296
REMARK  117  A    between atoms: _298  and  _300
REMARK  118  A    between atoms: _300  and  _301
REMARK  119  A    between atoms: _300  and  _303
REMARK  120  A    between atoms: _303  and  _304
REMARK  121  A    between atoms: _304  and  _305
REMARK  122  A    between atoms: _308  and  _310
REMARK  123  A    between atoms: _310  and  _311
REMARK  124  A    between atoms: _310  and  _313
REMARK  125  A    between atoms: _313  and  _314
REMARK  126  A    between atoms: _319  and  _320
REMARK  127  A    between atoms: _322  and  _324
REMARK  128  A    between atoms: _324  and  _325
REMARK  129  A    between atoms: _324  and  _327
REMARK  130  A    between atoms: _327  and  _328
REMARK  131  A    between atoms: _333  and  _335
REMARK  132  A    between atoms: _335  and  _336
REMARK  133  A    between atoms: _335  and  _338
REMARK  134  A    between atoms: _338  and  _339
REMARK  135  A    between atoms: _342  and  _344
REMARK  136  A    between atoms: _344  and  _345
REMARK  137  A    between atoms: _344  and  _347
REMARK  138  A    between atoms: _347  and  _348
REMARK  139  A    between atoms: _353  and  _355
REMARK  140  A    between atoms: _355  and  _356
REMARK  141  A    between atoms: _355  and  _358
REMARK  142  A    between atoms: _358  and  _359
REMARK  143  A    between atoms: _369  and  _371
REMARK  144  A    between atoms: _371  and  _372
REMARK  145  A    between atoms: _371  and  _374
REMARK  146  A    between atoms: _374  and  _375
REMARK  147  A    between atoms: _381  and  _383
REMARK  148  A    between atoms: _383  and  _384
REMARK  149  A    between atoms: _383  and  _386
REMARK  150  A    between atoms: _386  and  _387
REMARK  151  A    between atoms: _390  and  _392
REMARK  152  A    between atoms: _392  and  _393
REMARK  153  A    between atoms: _392  and  _395
REMARK  154  A    between atoms: _395  and  _396
REMARK  155  A    between atoms: _399  and  _401
REMARK  156  A    between atoms: _401  and  _402
REMARK  157  A    between atoms: _401  and  _404
REMARK  158  A    between atoms: _404  and  _405
REMARK  159  A    between atoms: _405  and  _406
REMARK  160  A    between atoms: _406  and  _407
REMARK  161  A    between atoms: _416  and  _418
REMARK  162  A    between atoms: _418  and  _419
REMARK  163  A    between atoms: _418  and  _421
REMARK  164  A    between atoms: _421  and  _422
REMARK  165  A    between atoms: _427  and  _429
REMARK  166  A    between atoms: _429  and  _430
REMARK  167  A    between atoms: _429  and  _432
REMARK  168  A    between atoms: _432  and  _433
REMARK  169  A    between atoms: _433  and  _434
REMARK  170  A    between atoms: _434  and  _435
REMARK  171  A    between atoms: _444  and  _446
REMARK  172  A    between atoms: _446  and  _447
REMARK  173  A    between atoms: _450  and  _452
REMARK  174  A    between atoms: _452  and  _453
REMARK  175  A    between atoms: _455  and  _457
REMARK  176  A    between atoms: _457  and  _458
REMARK  177  A    between atoms: _457  and  _460
REMARK  178  A    between atoms: _460  and  _461
REMARK  179  A    between atoms: _471  and  _473
REMARK  180  A    between atoms: _473  and  _474
REMARK  181  A    between atoms: _473  and  _476
REMARK  182  A    between atoms: _476  and  _477
REMARK  183  A    between atoms: _478  and  _480
REMARK  184  A    between atoms: _480  and  _481
REMARK  185  A    between atoms: _484  and  _486
REMARK  186  A    between atoms: _486  and  _487
REMARK  187  A    between atoms: _486  and  _489
REMARK  188  A    between atoms: _489  and  _490
REMARK  189  A    between atoms: _493  and  _495
REMARK  190  A    between atoms: _495  and  _496
REMARK  191  A    between atoms: _495  and  _498
REMARK  192  A    between atoms: _498  and  _499
REMARK  193  A    between atoms: _504  and  _505
REMARK  194  A    between atoms: _507  and  _509
REMARK  195  A    between atoms: _509  and  _510
REMARK  196  A    between atoms: _509  and  _512
REMARK  197  A    between atoms: _512  and  _513
REMARK  198  A    between atoms: _515  and  _517
REMARK  199  A    between atoms: _517  and  _518
REMARK  200  A    between atoms: _517  and  _520
REMARK  201  A    between atoms: _520  and  _521
REMARK  202  A    between atoms: _527  and  _529
REMARK  203  A    between atoms: _529  and  _530
REMARK  204  A    between atoms: _529  and  _532
REMARK  205  A    between atoms: _532  and  _533
REMARK  206  A    between atoms: _536  and  _538
REMARK  207  A    between atoms: _538  and  _539
REMARK  208  A    between atoms: _538  and  _541
REMARK  209  A    between atoms: _541  and  _542
REMARK  210  A    between atoms: _544  and  _546
REMARK  211  A    between atoms: _546  and  _547
REMARK  212  A    between atoms: _546  and  _549
REMARK  213  A    between atoms: _549  and  _550
REMARK  214  A    between atoms: _555  and  _557
REMARK  215  A    between atoms: _557  and  _558
REMARK  216  A    between atoms: _557  and  _560
REMARK  217  A    between atoms: _560  and  _561
REMARK  218  A    between atoms: _566  and  _568
REMARK  219  A    between atoms: _568  and  _569
REMARK  220  A    between atoms: _568  and  _571
REMARK  221  A    between atoms: _571  and  _572
REMARK  222  A    between atoms: _575  and  _577
REMARK  223  A    between atoms: _577  and  _578
REMARK  224  A    between atoms: _581  and  _583
REMARK  225  A    between atoms: _583  and  _584
REMARK  226  A    between atoms: _583  and  _586
REMARK  227  A    between atoms: _586  and  _587
REMARK  228  A    between atoms: _592  and  _593
REMARK  229  A    between atoms: _595  and  _597
REMARK  230  A    between atoms: _597  and  _598
REMARK  231  A    between atoms: _597  and  _600
REMARK  232  A    between atoms: _600  and  _601
REMARK  233  A    between atoms: _606  and  _607
REMARK  234  A    between atoms: _609  and  _611
REMARK  235  A    between atoms: _611  and  _612
REMARK  236  A    between atoms: _611  and  _614
REMARK  237  A    between atoms: _617  and  _619
REMARK  238  A    between atoms: _619  and  _620
REMARK  239  A    between atoms: _619  and  _622
REMARK  240  A    between atoms: _622  and  _623
REMARK  241  A    between atoms: _628  and  _630
REMARK  242  A    between atoms: _630  and  _631
REMARK  243  A    between atoms: _634  and  _636
REMARK  244  A    between atoms: _636  and  _637
REMARK  245  A    between atoms: _636  and  _639
REMARK  246  A    between atoms: _639  and  _640
REMARK  247  A    between atoms: _640  and  _641
REMARK  248  A    between atoms: _641  and  _642
REMARK  249  A    between atoms: _651  and  _653
REMARK  250  A    between atoms: _653  and  _654
REMARK  251  A    between atoms: _653  and  _656
REMARK  252  A    between atoms: _656  and  _657
REMARK  253  A    between atoms: _660  and  _662
REMARK  254  A    between atoms: _662  and  _663
REMARK  255  A    between atoms: _662  and  _665
REMARK  256  A    between atoms: _665  and  _666
REMARK  257  A    between atoms: _669  and  _671
REMARK  258  A    between atoms: _671  and  _672
REMARK  259  A    between atoms: _671  and  _674
REMARK  260  A    between atoms: _674  and  _675
REMARK                            x       y       z     vdW  Elec       q    Type
REMARK                         _______ _______ _______ _____ _____    ______ ____
ROOT
ATOM      1  O   HOH     1       8.705  13.182   7.205  0.00  0.00    +0.000 OA
ENDROOT
TORSDOF 0
REMARK  Name = ../refined-set-2016/1b32/1b32_pocket.pdb
REMARK  260 active torsions:
REMARK  status: ('A' for Active; 'I' for Inactive)
REMARK    1  A    between atoms: _1  and  _3
REMARK    2  A    between atoms: _3  and  _4
REMARK    3  A    between atoms: _3  and  _6
REMARK    4  A    between atoms: _6  and  _7
REMARK    5  A    between atoms: _12  and  _14
REMARK    6  A    between atoms: _14  and  _15
REMARK    7  A    between atoms: _14  and  _17
REMARK    8  A    between atoms: _17  and  _18
REMARK    9  A    between atoms: _20  and  _22
REMARK   10  A    between atoms: _22  and  _23
REMARK   11  A    between atoms: _22  and  _25
REMARK   12  A    between atoms: _25  and  _26
REMARK   13  A    between atoms: _26  and  _27
REMARK   14  A    between atoms: _32  and  _34
REMARK   15  A    between atoms: _34  and  _35
REMARK   16  A    between atoms: _34  and  _37
REMARK   17  A    between atoms: _37  and  _38
REMARK   18  A    between atoms: _41  and  _43
REMARK   19  A    between atoms: _43  and  _44
REMARK   20  A    between atoms: _43  and  _46
REMARK   21  A    between atoms: _46  and  _47
REMARK   22  A    between atoms: _47  and  _48
REMARK   23  A    between atoms: _51  and  _53
REMARK   24  A    between atoms: _53  and  _54
REMARK   25  A    between atoms: _56  and  _58
REMARK   26  A    between atoms: _58  and  _59
REMARK   27  A    between atoms: _58  and  _61
REMARK   28  A    between atoms: _65  and  _66
REMARK   29  A    between atoms: _71  and  _73
REMARK   30  A    between atoms: _73  and  _74
REMARK   31  A    between atoms: _73  and  _76
REMARK   32  A    between atoms: _76  and  _77
REMARK   33  A    between atoms: _77  and  _78
REMARK   34  A    between atoms: _81  and  _83
REMARK   35  A    between atoms: _83  and  _84
REMARK   36  A    between atoms: _83  and  _86
REMARK   37  A    between atoms: _86  and  _87
REMARK   38  A    between atoms: _89  and  _91
REMARK   39  A    between atoms: _91  and  _92
REMARK   40  A    between atoms: _91  and  _94
REMARK   41  A    between atoms: _94  and  _95
REMARK   42  A    between atoms: _100  and  _102
REMARK   43  A    between atoms: _102  and  _103
REMARK   44  A    between atoms: _102  and  _105
REMARK   45  A    between atoms: _105  and  _106
REMARK   46  A    between atoms: _106  and  _107
REMARK   47  A    between atoms: _107  and  _108
REMARK   48  A    between atoms: _118  and  _119
REMARK   49  A    between atoms: _124  and  _126
REMARK   50  A    between atoms: _126  and  _127
REMARK   51  A    between atoms: _126  and  _129
REMARK   52  A    between atoms: _129  and  _130
REMARK   53  A    between atoms: _135  and  _136
REMARK   54  A    between atoms: _138  and  _140
REMARK   55  A    between atoms: _140  and  _141
REMARK   56  A    between atoms: _140  and  _143
REMARK   57  A    between atoms: _143  and  _144
REMARK   58  A    between atoms: _149  and  _150
REMARK   59  A    between atoms: _152  and  _154
REMARK   60  A    between atoms: _154  and  _155
REMARK   61  A    between atoms: _154  and  _157
REMARK   62  A    between atoms: _160  and  _162
REMARK   63  A    between atoms: _162  and  _163
REMARK   64  A    between atoms: _162  and  _165
REMARK   65  A    between atoms: _165  and  _166
REMARK   66  A    between atoms: _172  and  _173
REMARK   67  A    between atoms: _178  and  _180
REMARK   68  A    between atoms: _180  and  _181
REMARK   69  A    between atoms: _180  and  _183
REMARK   70  A    between atoms: _183  and  _184
REMARK   71  A    between atoms: _186  and  _188
REMARK   72  A    between atoms: _188  and  _189
REMARK   73  A    between atoms: _188  and  _191
REMARK   74  A    between atoms: _191  and  _192
REMARK   75  A    between atoms: _197  and  _198
REMARK   76  A    between atoms: _200  and  _202
REMARK   77  A    between atoms: _202  and  _203
REMARK   78  A    between atoms: _202  and  _205
REMARK   79  A    between atoms: _205  and  _206
REMARK   80  A    between atoms: _211  and  _213
REMARK   81  A    between atoms: _213  and  _214
REMARK   82  A    between atoms: _213  and  _216
REMARK   83  A    between atoms: _216  and  _217
REMARK   84  A    between atoms: _222  and  _224
REMARK   85  A    between atoms: _224  and  _225
REMARK   86  A    between atoms: _224  and  _227
REMARK   87  A    between atoms: _227  and  _228
REMARK   88  A    between atoms: _228  and  _229
REMARK   89  A    between atoms: _231  and  _233
REMARK   90  A    between atoms: _233  and  _234
REMARK   91  A    between atoms: _233  and  _236
REMARK   92  A    between atoms: _236  and  _237
REMARK   93  A    between atoms: _242  and  _243
REMARK   94  A    between atoms: _245  and  _247
REMARK   95  A    between atoms: _247  and  _248
REMARK   96  A    between atoms: _247  and  _250
REMARK   97  A    between atoms: _250  and  _251
REMARK   98  A    between atoms: _254  and  _256
REMARK   99  A    between atoms: _256  and  _257
REMARK  100  A    between atoms: _256  and  _259
REMARK  101  A    between atoms: _259  and  _260
REMARK  102  A    between atoms: _260  and  _477
REMARK  103  A    between atoms: _261  and  _263
REMARK  104  A    between atoms: _263  and  _264
REMARK  105  A    between atoms: _263  and  _266
REMARK  106  A    between atoms: _266  and  _267
REMARK  107  A    between atoms: _270  and  _272
REMARK  108  A    between atoms: _272  and  _273
REMARK  109  A    between atoms: _272  and  _275
REMARK  110  A    between atoms: _275  and  _276
REMARK  111  A    between atoms: _281  and  _282
REMARK  112  A    between atoms: _284  and  _286
REMARK  113  A    between atoms: _286  and  _287
REMARK  114  A    between atoms: _286  and  _289
REMARK  115  A    between atoms: _289  and  _290
REMARK  116  A    between atoms: _295  and  _296
REMARK  117  A    between atoms: _298  and  _300
REMARK  118  A    between atoms: _300  and  _301
REMARK  119  A    between atoms: _300  and  _303
REMARK  120  A    between atoms: _303  and  _304
REMARK  121  A    between atoms: _304  and  _305
REMARK  122  A    between atoms: _308  and  _310
REMARK  123  A    between atoms: _310  and  _311
REMARK  124  A    between atoms: _310  and  _313
REMARK  125  A    between atoms: _313  and  _314
REMARK  126  A    between atoms: _319  and  _320
REMARK  127  A    between atoms: _322  and  _324
REMARK  128  A    between atoms: _324  and  _325
REMARK  129  A    between atoms: _324  and  _327
REMARK  130  A    between atoms: _327  and  _328
REMARK  131  A    between atoms: _333  and  _335
REMARK  132  A    between atoms: _335  and  _336
REMARK  133  A    between atoms: _335  and  _338
REMARK  134  A    between atoms: _338  and  _339
REMARK  135  A    between atoms: _342  and  _344
REMARK  136  A    between atoms: _344  and  _345
REMARK  137  A    between atoms: _344  and  _347
REMARK  138  A    between atoms: _347  and  _348
REMARK  139  A    between atoms: _353  and  _355
REMARK  140  A    between atoms: _355  and  _356
REMARK  141  A    between atoms: _355  and  _358
REMARK  142  A    between atoms: _358  and  _359
REMARK  143  A    between atoms: _369  and  _371
REMARK  144  A    between atoms: _371  and  _372
REMARK  145  A    between atoms: _371  and  _374
REMARK  146  A    between atoms: _374  and  _375
REMARK  147  A    between atoms: _381  and  _383
REMARK  148  A    between atoms: _383  and  _384
REMARK  149  A    between atoms: _383  and  _386
REMARK  150  A    between atoms: _386  and  _387
REMARK  151  A    between atoms: _390  and  _392
REMARK  152  A    between atoms: _392  and  _393
REMARK  153  A    between atoms: _392  and  _395
REMARK  154  A    between atoms: _395  and  _396
REMARK  155  A    between atoms: _399  and  _401
REMARK  156  A    between atoms: _401  and  _402
REMARK  157  A    between atoms: _401  and  _404
REMARK  158  A    between atoms: _404  and  _405
REMARK  159  A    between atoms: _405  and  _406
REMARK  160  A    between atoms: _406  and  _407
REMARK  161  A    between atoms: _416  and  _418
REMARK  162  A    between atoms: _418  and  _419
REMARK  163  A    between atoms: _418  and  _421
REMARK  164  A    between atoms: _421  and  _422
REMARK  165  A    between atoms: _427  and  _429
REMARK  166  A    between atoms: _429  and  _430
REMARK  167  A    between atoms: _429  and  _432
REMARK  168  A    between atoms: _432  and  _433
REMARK  169  A    between atoms: _433  and  _434
REMARK  170  A    between atoms: _434  and  _435
REMARK  171  A    between atoms: _444  and  _446
REMARK  172  A    between atoms: _446  and  _447
REMARK  173  A    between atoms: _450  and  _452
REMARK  174  A    between atoms: _452  and  _453
REMARK  175  A    between atoms: _455  and  _457
REMARK  176  A    between atoms: _457  and  _458
REMARK  177  A    between atoms: _457  and  _460
REMARK  178  A    between atoms: _460  and  _461
REMARK  179  A    between atoms: _471  and  _473
REMARK  180  A    between atoms: _473  and  _474
REMARK  181  A    between atoms: _473  and  _476
REMARK  182  A    between atoms: _476  and  _477
REMARK  183  A    between atoms: _478  and  _480
REMARK  184  A    between atoms: _480  and  _481
REMARK  185  A    between atoms: _484  and  _486
REMARK  186  A    between atoms: _486  and  _487
REMARK  187  A    between atoms: _486  and  _489
REMARK  188  A    between atoms: _489  and  _490
REMARK  189  A    between atoms: _493  and  _495
REMARK  190  A    between atoms: _495  and  _496
REMARK  191  A    between atoms: _495  and  _498
REMARK  192  A    between atoms: _498  and  _499
REMARK  193  A    between atoms: _504  and  _505
REMARK  194  A    between atoms: _507  and  _509
REMARK  195  A    between atoms: _509  and  _510
REMARK  196  A    between atoms: _509  and  _512
REMARK  197  A    between atoms: _512  and  _513
REMARK  198  A    between atoms: _515  and  _517
REMARK  199  A    between atoms: _517  and  _518
REMARK  200  A    between atoms: _517  and  _520
REMARK  201  A    between atoms: _520  and  _521
REMARK  202  A    between atoms: _527  and  _529
REMARK  203  A    between atoms: _529  and  _530
REMARK  204  A    between atoms: _529  and  _532
REMARK  205  A    between atoms: _532  and  _533
REMARK  206  A    between atoms: _536  and  _538
REMARK  207  A    between atoms: _538  and  _539
REMARK  208  A    between atoms: _538  and  _541
REMARK  209  A    between atoms: _541  and  _542
REMARK  210  A    between atoms: _544  and  _546
REMARK  211  A    between atoms: _546  and  _547
REMARK  212  A    between atoms: _546  and  _549
REMARK  213  A    between atoms: _549  and  _550
REMARK  214  A    between atoms: _555  and  _557
REMARK  215  A    between atoms: _557  and  _558
REMARK  216  A    between atoms: _557  and  _560
REMARK  217  A    between atoms: _560  and  _561
REMARK  218  A    between atoms: _566  and  _568
REMARK  219  A    between atoms: _568  and  _569
REMARK  220  A    between atoms: _568  and  _571
REMARK  221  A    between atoms: _571  and  _572
REMARK  222  A    between atoms: _575  and  _577
REMARK  223  A    between atoms: _577  and  _578
REMARK  224  A    between atoms: _581  and  _583
REMARK  225  A    between atoms: _583  and  _584
REMARK  226  A    between atoms: _583  and  _586
REMARK  227  A    between atoms: _586  and  _587
REMARK  228  A    between atoms: _592  and  _593
REMARK  229  A    between atoms: _595  and  _597
REMARK  230  A    between atoms: _597  and  _598
REMARK  231  A    between atoms: _597  and  _600
REMARK  232  A    between atoms: _600  and  _601
REMARK  233  A    between atoms: _606  and  _607
REMARK  234  A    between atoms: _609  and  _611
REMARK  235  A    between atoms: _611  and  _612
REMARK  236  A    between atoms: _611  and  _614
REMARK  237  A    between atoms: _617  and  _619
REMARK  238  A    between atoms: _619  and  _620
REMARK  239  A    between atoms: _619  and  _622
REMARK  240  A    between atoms: _622  and  _623
REMARK  241  A    between atoms: _628  and  _630
REMARK  242  A    between atoms: _630  and  _631
REMARK  243  A    between atoms: _634  and  _636
REMARK  244  A    between atoms: _636  and  _637
REMARK  245  A    between atoms: _636  and  _639
REMARK  246  A    between atoms: _639  and  _640
REMARK  247  A    between atoms: _640  and  _641
REMARK  248  A    between atoms: _641  and  _642
REMARK  249  A    between atoms: _651  and  _653
REMARK  250  A    between atoms: _653  and  _654
REMARK  251  A    between atoms: _653  and  _656
REMARK  252  A    between atoms: _656  and  _657
REMARK  253  A    between atoms: _660  and  _662
REMARK  254  A    between atoms: _662  and  _663
REMARK  255  A    between atoms: _662  and  _665
REMARK  256  A    between atoms: _665  and  _666
REMARK  257  A    between atoms: _669  and  _671
REMARK  258  A    between atoms: _671  and  _672
REMARK  259  A    between atoms: _671  and  _674
REMARK  260  A    between atoms: _674  and  _675
REMARK                            x       y       z     vdW  Elec       q    Type
REMARK                         _______ _______ _______ _____ _____    ______ ____
ROOT
ATOM      1  O   HOH     1      -0.746  14.876   8.665  0.00  0.00    +0.000 OA
ENDROOT
TORSDOF 0
REMARK  Name = ../refined-set-2016/1b32/1b32_pocket.pdb
REMARK  260 active torsions:
REMARK  status: ('A' for Active; 'I' for Inactive)
REMARK    1  A    between atoms: _1  and  _3
REMARK    2  A    between atoms: _3  and  _4
REMARK    3  A    between atoms: _3  and  _6
REMARK    4  A    between atoms: _6  and  _7
REMARK    5  A    between atoms: _12  and  _14
REMARK    6  A    between atoms: _14  and  _15
REMARK    7  A    between atoms: _14  and  _17
REMARK    8  A    between atoms: _17  and  _18
REMARK    9  A    between atoms: _20  and  _22
REMARK   10  A    between atoms: _22  and  _23
REMARK   11  A    between atoms: _22  and  _25
REMARK   12  A    between atoms: _25  and  _26
REMARK   13  A    between atoms: _26  and  _27
REMARK   14  A    between atoms: _32  and  _34
REMARK   15  A    between atoms: _34  and  _35
REMARK   16  A    between atoms: _34  and  _37
REMARK   17  A    between atoms: _37  and  _38
REMARK   18  A    between atoms: _41  and  _43
REMARK   19  A    between atoms: _43  and  _44
REMARK   20  A    between atoms: _43  and  _46
REMARK   21  A    between atoms: _46  and  _47
REMARK   22  A    between atoms: _47  and  _48
REMARK   23  A    between atoms: _51  and  _53
REMARK   24  A    between atoms: _53  and  _54
REMARK   25  A    between atoms: _56  and  _58
REMARK   26  A    between atoms: _58  and  _59
REMARK   27  A    between atoms: _58  and  _61
REMARK   28  A    between atoms: _65  and  _66
REMARK   29  A    between atoms: _71  and  _73
REMARK   30  A    between atoms: _73  and  _74
REMARK   31  A    between atoms: _73  and  _76
REMARK   32  A    between atoms: _76  and  _77
REMARK   33  A    between atoms: _77  and  _78
REMARK   34  A    between atoms: _81  and  _83
REMARK   35  A    between atoms: _83  and  _84
REMARK   36  A    between atoms: _83  and  _86
REMARK   37  A    between atoms: _86  and  _87
REMARK   38  A    between atoms: _89  and  _91
REMARK   39  A    between atoms: _91  and  _92
REMARK   40  A    between atoms: _91  and  _94
REMARK   41  A    between atoms: _94  and  _95
REMARK   42  A    between atoms: _100  and  _102
REMARK   43  A    between atoms: _102  and  _103
REMARK   44  A    between atoms: _102  and  _105
REMARK   45  A    between atoms: _105  and  _106
REMARK   46  A    between atoms: _106  and  _107
REMARK   47  A    between atoms: _107  and  _108
REMARK   48  A    between atoms: _118  and  _119
REMARK   49  A    between atoms: _124  and  _126
REMARK   50  A    between atoms: _126  and  _127
REMARK   51  A    between atoms: _126  and  _129
REMARK   52  A    between atoms: _129  and  _130
REMARK   53  A    between atoms: _135  and  _136
REMARK   54  A    between atoms: _138  and  _140
REMARK   55  A    between atoms: _140  and  _141
REMARK   56  A    between atoms: _140  and  _143
REMARK   57  A    between atoms: _143  and  _144
REMARK   58  A    between atoms: _149  and  _150
REMARK   59  A    between atoms: _152  and  _154
REMARK   60  A    between atoms: _154  and  _155
REMARK   61  A    between atoms: _154  and  _157
REMARK   62  A    between atoms: _160  and  _162
REMARK   63  A    between atoms: _162  and  _163
REMARK   64  A    between atoms: _162  and  _165
REMARK   65  A    between atoms: _165  and  _166
REMARK   66  A    between atoms: _172  and  _173
REMARK   67  A    between atoms: _178  and  _180
REMARK   68  A    between atoms: _180  and  _181
REMARK   69  A    between atoms: _180  and  _183
REMARK   70  A    between atoms: _183  and  _184
REMARK   71  A    between atoms: _186  and  _188
REMARK   72  A    between atoms: _188  and  _189
REMARK   73  A    between atoms: _188  and  _191
REMARK   74  A    between atoms: _191  and  _192
REMARK   75  A    between atoms: _197  and  _198
REMARK   76  A    between atoms: _200  and  _202
REMARK   77  A    between atoms: _202  and  _203
REMARK   78  A    between atoms: _202  and  _205
REMARK   79  A    between atoms: _205  and  _206
REMARK   80  A    between atoms: _211  and  _213
REMARK   81  A    between atoms: _213  and  _214
REMARK   82  A    between atoms: _213  and  _216
REMARK   83  A    between atoms: _216  and  _217
REMARK   84  A    between atoms: _222  and  _224
REMARK   85  A    between atoms: _224  and  _225
REMARK   86  A    between atoms: _224  and  _227
REMARK   87  A    between atoms: _227  and  _228
REMARK   88  A    between atoms: _228  and  _229
REMARK   89  A    between atoms: _231  and  _233
REMARK   90  A    between atoms: _233  and  _234
REMARK   91  A    between atoms: _233  and  _236
REMARK   92  A    between atoms: _236  and  _237
REMARK   93  A    between atoms: _242  and  _243
REMARK   94  A    between atoms: _245  and  _247
REMARK   95  A    between atoms: _247  and  _248
REMARK   96  A    between atoms: _247  and  _250
REMARK   97  A    between atoms: _250  and  _251
REMARK   98  A    between atoms: _254  and  _256
REMARK   99  A    between atoms: _256  and  _257
REMARK  100  A    between atoms: _256  and  _259
REMARK  101  A    between atoms: _259  and  _260
REMARK  102  A    between atoms: _260  and  _477
REMARK  103  A    between atoms: _261  and  _263
REMARK  104  A    between atoms: _263  and  _264
REMARK  105  A    between atoms: _263  and  _266
REMARK  106  A    between atoms: _266  and  _267
REMARK  107  A    between atoms: _270  and  _272
REMARK  108  A    between atoms: _272  and  _273
REMARK  109  A    between atoms: _272  and  _275
REMARK  110  A    between atoms: _275  and  _276
REMARK  111  A    between atoms: _281  and  _282
REMARK  112  A    between atoms: _284  and  _286
REMARK  113  A    between atoms: _286  and  _287
REMARK  114  A    between atoms: _286  and  _289
REMARK  115  A    between atoms: _289  and  _290
REMARK  116  A    between atoms: _295  and  _296
REMARK  117  A    between atoms: _298  and  _300
REMARK  118  A    between atoms: _300  and  _301
REMARK  119  A    between atoms: _300  and  _303
REMARK  120  A    between atoms: _303  and  _304
REMARK  121  A    between atoms: _304  and  _305
REMARK  122  A    between atoms: _308  and  _310
REMARK  123  A    between atoms: _310  and  _311
REMARK  124  A    between atoms: _310  and  _313
REMARK  125  A    between atoms: _313  and  _314
REMARK  126  A    between atoms: _319  and  _320
REMARK  127  A    between atoms: _322  and  _324
REMARK  128  A    between atoms: _324  and  _325
REMARK  129  A    between atoms: _324  and  _327
REMARK  130  A    between atoms: _327  and  _328
REMARK  131  A    between atoms: _333  and  _335
REMARK  132  A    between atoms: _335  and  _336
REMARK  133  A    between atoms: _335  and  _338
REMARK  134  A    between atoms: _338  and  _339
REMARK  135  A    between atoms: _342  and  _344
REMARK  136  A    between atoms: _344  and  _345
REMARK  137  A    between atoms: _344  and  _347
REMARK  138  A    between atoms: _347  and  _348
REMARK  139  A    between atoms: _353  and  _355
REMARK  140  A    between atoms: _355  and  _356
REMARK  141  A    between atoms: _355  and  _358
REMARK  142  A    between atoms: _358  and  _359
REMARK  143  A    between atoms: _369  and  _371
REMARK  144  A    between atoms: _371  and  _372
REMARK  145  A    between atoms: _371  and  _374
REMARK  146  A    between atoms: _374  and  _375
REMARK  147  A    between atoms: _381  and  _383
REMARK  148  A    between atoms: _383  and  _384
REMARK  149  A    between atoms: _383  and  _386
REMARK  150  A    between atoms: _386  and  _387
REMARK  151  A    between atoms: _390  and  _392
REMARK  152  A    between atoms: _392  and  _393
REMARK  153  A    between atoms: _392  and  _395
REMARK  154  A    between atoms: _395  and  _396
REMARK  155  A    between atoms: _399  and  _401
REMARK  156  A    between atoms: _401  and  _402
REMARK  157  A    between atoms: _401  and  _404
REMARK  158  A    between atoms: _404  and  _405
REMARK  159  A    between atoms: _405  and  _406
REMARK  160  A    between atoms: _406  and  _407
REMARK  161  A    between atoms: _416  and  _418
REMARK  162  A    between atoms: _418  and  _419
REMARK  163  A    between atoms: _418  and  _421
REMARK  164  A    between atoms: _421  and  _422
REMARK  165  A    between atoms: _427  and  _429
REMARK  166  A    between atoms: _429  and  _430
REMARK  167  A    between atoms: _429  and  _432
REMARK  168  A    between atoms: _432  and  _433
REMARK  169  A    between atoms: _433  and  _434
REMARK  170  A    between atoms: _434  and  _435
REMARK  171  A    between atoms: _444  and  _446
REMARK  172  A    between atoms: _446  and  _447
REMARK  173  A    between atoms: _450  and  _452
REMARK  174  A    between atoms: _452  and  _453
REMARK  175  A    between atoms: _455  and  _457
REMARK  176  A    between atoms: _457  and  _458
REMARK  177  A    between atoms: _457  and  _460
REMARK  178  A    between atoms: _460  and  _461
REMARK  179  A    between atoms: _471  and  _473
REMARK  180  A    between atoms: _473  and  _474
REMARK  181  A    between atoms: _473  and  _476
REMARK  182  A    between atoms: _476  and  _477
REMARK  183  A    between atoms: _478  and  _480
REMARK  184  A    between atoms: _480  and  _481
REMARK  185  A    between atoms: _484  and  _486
REMARK  186  A    between atoms: _486  and  _487
REMARK  187  A    between atoms: _486  and  _489
REMARK  188  A    between atoms: _489  and  _490
REMARK  189  A    between atoms: _493  and  _495
REMARK  190  A    between atoms: _495  and  _496
REMARK  191  A    between atoms: _495  and  _498
REMARK  192  A    between atoms: _498  and  _499
REMARK  193  A    between atoms: _504  and  _505
REMARK  194  A    between atoms: _507  and  _509
REMARK  195  A    between atoms: _509  and  _510
REMARK  196  A    between atoms: _509  and  _512
REMARK  197  A    between atoms: _512  and  _513
REMARK  198  A    between atoms: _515  and  _517
REMARK  199  A    between atoms: _517  and  _518
REMARK  200  A    between atoms: _517  and  _520
REMARK  201  A    between atoms: _520  and  _521
REMARK  202  A    between atoms: _527  and  _529
REMARK  203  A    between atoms: _529  and  _530
REMARK  204  A    between atoms: _529  and  _532
REMARK  205  A    between atoms: _532  and  _533
REMARK  206  A    between atoms: _536  and  _538
REMARK  207  A    between atoms: _538  and  _539
REMARK  208  A    between atoms: _538  and  _541
REMARK  209  A    between atoms: _541  and  _542
REMARK  210  A    between atoms: _544  and  _546
REMARK  211  A    between atoms: _546  and  _547
REMARK  212  A    between atoms: _546  and  _549
REMARK  213  A    between atoms: _549  and  _550
REMARK  214  A    between atoms: _555  and  _557
REMARK  215  A    between atoms: _557  and  _558
REMARK  216  A    between atoms: _557  and  _560
REMARK  217  A    between atoms: _560  and  _561
REMARK  218  A    between atoms: _566  and  _568
REMARK  219  A    between atoms: _568  and  _569
REMARK  220  A    between atoms: _568  and  _571
REMARK  221  A    between atoms: _571  and  _572
REMARK  222  A    between atoms: _575  and  _577
REMARK  223  A    between atoms: _577  and  _578
REMARK  224  A    between atoms: _581  and  _583
REMARK  225  A    between atoms: _583  and  _584
REMARK  226  A    between atoms: _583  and  _586
REMARK  227  A    between atoms: _586  and  _587
REMARK  228  A    between atoms: _592  and  _593
REMARK  229  A    between atoms: _595  and  _597
REMARK  230  A    between atoms: _597  and  _598
REMARK  231  A    between atoms: _597  and  _600
REMARK  232  A    between atoms: _600  and  _601
REMARK  233  A    between atoms: _606  and  _607
REMARK  234  A    between atoms: _609  and  _611
REMARK  235  A    between atoms: _611  and  _612
REMARK  236  A    between atoms: _611  and  _614
REMARK  237  A    between atoms: _617  and  _619
REMARK  238  A    between atoms: _619  and  _620
REMARK  239  A    between atoms: _619  and  _622
REMARK  240  A    between atoms: _622  and  _623
REMARK  241  A    between atoms: _628  and  _630
REMARK  242  A    between atoms: _630  and  _631
REMARK  243  A    between atoms: _634  and  _636
REMARK  244  A    between atoms: _636  and  _637
REMARK  245  A    between atoms: _636  and  _639
REMARK  246  A    between atoms: _639  and  _640
REMARK  247  A    between atoms: _640  and  _641
REMARK  248  A    between atoms: _641  and  _642
REMARK  249  A    between atoms: _651  and  _653
REMARK  250  A    between atoms: _653  and  _654
REMARK  251  A    between atoms: _653  and  _656
REMARK  252  A    between atoms: _656  and  _657
REMARK  253  A    between atoms: _660  and  _662
REMARK  254  A    between atoms: _662  and  _663
REMARK  255  A    between atoms: _662  and  _665
REMARK  256  A    between atoms: _665  and  _666
REMARK  257  A    between atoms: _669  and  _671
REMARK  258  A    between atoms: _671  and  _672
REMARK  259  A    between atoms: _671  and  _674
REMARK  260  A    between atoms: _674  and  _675
REMARK                            x       y       z     vdW  Elec       q    Type
REMARK                         _______ _______ _______ _____ _____    ______ ____
ROOT
ATOM      1  O   HOH     1      10.499  28.141  16.192  0.00  0.00    +0.000 OA
ENDROOT
TORSDOF 0
REMARK  Name = ../refined-set-2016/1b32/1b32_pocket.pdb
REMARK  260 active torsions:
REMARK  status: ('A' for Active; 'I' for Inactive)
REMARK    1  A    between atoms: _1  and  _3
REMARK    2  A    between atoms: _3  and  _4
REMARK    3  A    between atoms: _3  and  _6
REMARK    4  A    between atoms: _6  and  _7
REMARK    5  A    between atoms: _12  and  _14
REMARK    6  A    between atoms: _14  and  _15
REMARK    7  A    between atoms: _14  and  _17
REMARK    8  A    between atoms: _17  and  _18
REMARK    9  A    between atoms: _20  and  _22
REMARK   10  A    between atoms: _22  and  _23
REMARK   11  A    between atoms: _22  and  _25
REMARK   12  A    between atoms: _25  and  _26
REMARK   13  A    between atoms: _26  and  _27
REMARK   14  A    between atoms: _32  and  _34
REMARK   15  A    between atoms: _34  and  _35
REMARK   16  A    between atoms: _34  and  _37
REMARK   17  A    between atoms: _37  and  _38
REMARK   18  A    between atoms: _41  and  _43
REMARK   19  A    between atoms: _43  and  _44
REMARK   20  A    between atoms: _43  and  _46
REMARK   21  A    between atoms: _46  and  _47
REMARK   22  A    between atoms: _47  and  _48
REMARK   23  A    between atoms: _51  and  _53
REMARK   24  A    between atoms: _53  and  _54
REMARK   25  A    between atoms: _56  and  _58
REMARK   26  A    between atoms: _58  and  _59
REMARK   27  A    between atoms: _58  and  _61
REMARK   28  A    between atoms: _65  and  _66
REMARK   29  A    between atoms: _71  and  _73
REMARK   30  A    between atoms: _73  and  _74
REMARK   31  A    between atoms: _73  and  _76
REMARK   32  A    between atoms: _76  and  _77
REMARK   33  A    between atoms: _77  and  _78
REMARK   34  A    between atoms: _81  and  _83
REMARK   35  A    between atoms: _83  and  _84
REMARK   36  A    between atoms: _83  and  _86
REMARK   37  A    between atoms: _86  and  _87
REMARK   38  A    between atoms: _89  and  _91
REMARK   39  A    between atoms: _91  and  _92
REMARK   40  A    between atoms: _91  and  _94
REMARK   41  A    between atoms: _94  and  _95
REMARK   42  A    between atoms: _100  and  _102
REMARK   43  A    between atoms: _102  and  _103
REMARK   44  A    between atoms: _102  and  _105
REMARK   45  A    between atoms: _105  and  _106
REMARK   46  A    between atoms: _106  and  _107
REMARK   47  A    between atoms: _107  and  _108
REMARK   48  A    between atoms: _118  and  _119
REMARK   49  A    between atoms: _124  and  _126
REMARK   50  A    between atoms: _126  and  _127
REMARK   51  A    between atoms: _126  and  _129
REMARK   52  A    between atoms: _129  and  _130
REMARK   53  A    between atoms: _135  and  _136
REMARK   54  A    between atoms: _138  and  _140
REMARK   55  A    between atoms: _140  and  _141
REMARK   56  A    between atoms: _140  and  _143
REMARK   57  A    between atoms: _143  and  _144
REMARK   58  A    between atoms: _149  and  _150
REMARK   59  A    between atoms: _152  and  _154
REMARK   60  A    between atoms: _154  and  _155
REMARK   61  A    between atoms: _154  and  _157
REMARK   62  A    between atoms: _160  and  _162
REMARK   63  A    between atoms: _162  and  _163
REMARK   64  A    between atoms: _162  and  _165
REMARK   65  A    between atoms: _165  and  _166
REMARK   66  A    between atoms: _172  and  _173
REMARK   67  A    between atoms: _178  and  _180
REMARK   68  A    between atoms: _180  and  _181
REMARK   69  A    between atoms: _180  and  _183
REMARK   70  A    between atoms: _183  and  _184
REMARK   71  A    between atoms: _186  and  _188
REMARK   72  A    between atoms: _188  and  _189
REMARK   73  A    between atoms: _188  and  _191
REMARK   74  A    between atoms: _191  and  _192
REMARK   75  A    between atoms: _197  and  _198
REMARK   76  A    between atoms: _200  and  _202
REMARK   77  A    between atoms: _202  and  _203
REMARK   78  A    between atoms: _202  and  _205
REMARK   79  A    between atoms: _205  and  _206
REMARK   80  A    between atoms: _211  and  _213
REMARK   81  A    between atoms: _213  and  _214
REMARK   82  A    between atoms: _213  and  _216
REMARK   83  A    between atoms: _216  and  _217
REMARK   84  A    between atoms: _222  and  _224
REMARK   85  A    between atoms: _224  and  _225
REMARK   86  A    between atoms: _224  and  _227
REMARK   87  A    between atoms: _227  and  _228
REMARK   88  A    between atoms: _228  and  _229
REMARK   89  A    between atoms: _231  and  _233
REMARK   90  A    between atoms: _233  and  _234
REMARK   91  A    between atoms: _233  and  _236
REMARK   92  A    between atoms: _236  and  _237
REMARK   93  A    between atoms: _242  and  _243
REMARK   94  A    between atoms: _245  and  _247
REMARK   95  A    between atoms: _247  and  _248
REMARK   96  A    between atoms: _247  and  _250
REMARK   97  A    between atoms: _250  and  _251
REMARK   98  A    between atoms: _254  and  _256
REMARK   99  A    between atoms: _256  and  _257
REMARK  100  A    between atoms: _256  and  _259
REMARK  101  A    between atoms: _259  and  _260
REMARK  102  A    between atoms: _260  and  _477
REMARK  103  A    between atoms: _261  and  _263
REMARK  104  A    between atoms: _263  and  _264
REMARK  105  A    between atoms: _263  and  _266
REMARK  106  A    between atoms: _266  and  _267
REMARK  107  A    between atoms: _270  and  _272
REMARK  108  A    between atoms: _272  and  _273
REMARK  109  A    between atoms: _272  and  _275
REMARK  110  A    between atoms: _275  and  _276
REMARK  111  A    between atoms: _281  and  _282
REMARK  112  A    between atoms: _284  and  _286
REMARK  113  A    between atoms: _286  and  _287
REMARK  114  A    between atoms: _286  and  _289
REMARK  115  A    between atoms: _289  and  _290
REMARK  116  A    between atoms: _295  and  _296
REMARK  117  A    between atoms: _298  and  _300
REMARK  118  A    between atoms: _300  and  _301
REMARK  119  A    between atoms: _300  and  _303
REMARK  120  A    between atoms: _303  and  _304
REMARK  121  A    between atoms: _304  and  _305
REMARK  122  A    between atoms: _308  and  _310
REMARK  123  A    between atoms: _310  and  _311
REMARK  124  A    between atoms: _310  and  _313
REMARK  125  A    between atoms: _313  and  _314
REMARK  126  A    between atoms: _319  and  _320
REMARK  127  A    between atoms: _322  and  _324
REMARK  128  A    between atoms: _324  and  _325
REMARK  129  A    between atoms: _324  and  _327
REMARK  130  A    between atoms: _327  and  _328
REMARK  131  A    between atoms: _333  and  _335
REMARK  132  A    between atoms: _335  and  _336
REMARK  133  A    between atoms: _335  and  _338
REMARK  134  A    between atoms: _338  and  _339
REMARK  135  A    between atoms: _342  and  _344
REMARK  136  A    between atoms: _344  and  _345
REMARK  137  A    between atoms: _344  and  _347
REMARK  138  A    between atoms: _347  and  _348
REMARK  139  A    between atoms: _353  and  _355
REMARK  140  A    between atoms: _355  and  _356
REMARK  141  A    between atoms: _355  and  _358
REMARK  142  A    between atoms: _358  and  _359
REMARK  143  A    between atoms: _369  and  _371
REMARK  144  A    between atoms: _371  and  _372
REMARK  145  A    between atoms: _371  and  _374
REMARK  146  A    between atoms: _374  and  _375
REMARK  147  A    between atoms: _381  and  _383
REMARK  148  A    between atoms: _383  and  _384
REMARK  149  A    between atoms: _383  and  _386
REMARK  150  A    between atoms: _386  and  _387
REMARK  151  A    between atoms: _390  and  _392
REMARK  152  A    between atoms: _392  and  _393
REMARK  153  A    between atoms: _392  and  _395
REMARK  154  A    between atoms: _395  and  _396
REMARK  155  A    between atoms: _399  and  _401
REMARK  156  A    between atoms: _401  and  _402
REMARK  157  A    between atoms: _401  and  _404
REMARK  158  A    between atoms: _404  and  _405
REMARK  159  A    between atoms: _405  and  _406
REMARK  160  A    between atoms: _406  and  _407
REMARK  161  A    between atoms: _416  and  _418
REMARK  162  A    between atoms: _418  and  _419
REMARK  163  A    between atoms: _418  and  _421
REMARK  164  A    between atoms: _421  and  _422
REMARK  165  A    between atoms: _427  and  _429
REMARK  166  A    between atoms: _429  and  _430
REMARK  167  A    between atoms: _429  and  _432
REMARK  168  A    between atoms: _432  and  _433
REMARK  169  A    between atoms: _433  and  _434
REMARK  170  A    between atoms: _434  and  _435
REMARK  171  A    between atoms: _444  and  _446
REMARK  172  A    between atoms: _446  and  _447
REMARK  173  A    between atoms: _450  and  _452
REMARK  174  A    between atoms: _452  and  _453
REMARK  175  A    between atoms: _455  and  _457
REMARK  176  A    between atoms: _457  and  _458
REMARK  177  A    between atoms: _457  and  _460
REMARK  178  A    between atoms: _460  and  _461
REMARK  179  A    between atoms: _471  and  _473
REMARK  180  A    between atoms: _473  and  _474
REMARK  181  A    between atoms: _473  and  _476
REMARK  182  A    between atoms: _476  and  _477
REMARK  183  A    between atoms: _478  and  _480
REMARK  184  A    between atoms: _480  and  _481
REMARK  185  A    between atoms: _484  and  _486
REMARK  186  A    between atoms: _486  and  _487
REMARK  187  A    between atoms: _486  and  _489
REMARK  188  A    between atoms: _489  and  _490
REMARK  189  A    between atoms: _493  and  _495
REMARK  190  A    between atoms: _495  and  _496
REMARK  191  A    between atoms: _495  and  _498
REMARK  192  A    between atoms: _498  and  _499
REMARK  193  A    between atoms: _504  and  _505
REMARK  194  A    between atoms: _507  and  _509
REMARK  195  A    between atoms: _509  and  _510
REMARK  196  A    between atoms: _509  and  _512
REMARK  197  A    between atoms: _512  and  _513
REMARK  198  A    between atoms: _515  and  _517
REMARK  199  A    between atoms: _517  and  _518
REMARK  200  A    between atoms: _517  and  _520
REMARK  201  A    between atoms: _520  and  _521
REMARK  202  A    between atoms: _527  and  _529
REMARK  203  A    between atoms: _529  and  _530
REMARK  204  A    between atoms: _529  and  _532
REMARK  205  A    between atoms: _532  and  _533
REMARK  206  A    between atoms: _536  and  _538
REMARK  207  A    between atoms: _538  and  _539
REMARK  208  A    between atoms: _538  and  _541
REMARK  209  A    between atoms: _541  and  _542
REMARK  210  A    between atoms: _544  and  _546
REMARK  211  A    between atoms: _546  and  _547
REMARK  212  A    between atoms: _546  and  _549
REMARK  213  A    between atoms: _549  and  _550
REMARK  214  A    between atoms: _555  and  _557
REMARK  215  A    between atoms: _557  and  _558
REMARK  216  A    between atoms: _557  and  _560
REMARK  217  A    between atoms: _560  and  _561
REMARK  218  A    between atoms: _566  and  _568
REMARK  219  A    between atoms: _568  and  _569
REMARK  220  A    between atoms: _568  and  _571
REMARK  221  A    between atoms: _571  and  _572
REMARK  222  A    between atoms: _575  and  _577
REMARK  223  A    between atoms: _577  and  _578
REMARK  224  A    between atoms: _581  and  _583
REMARK  225  A    between atoms: _583  and  _584
REMARK  226  A    between atoms: _583  and  _586
REMARK  227  A    between atoms: _586  and  _587
REMARK  228  A    between atoms: _592  and  _593
REMARK  229  A    between atoms: _595  and  _597
REMARK  230  A    between atoms: _597  and  _598
REMARK  231  A    between atoms: _597  and  _600
REMARK  232  A    between atoms: _600  and  _601
REMARK  233  A    between atoms: _606  and  _607
REMARK  234  A    between atoms: _609  and  _611
REMARK  235  A    between atoms: _611  and  _612
REMARK  236  A    between atoms: _611  and  _614
REMARK  237  A    between atoms: _617  and  _619
REMARK  238  A    between atoms: _619  and  _620
REMARK  239  A    between atoms: _619  and  _622
REMARK  240  A    between atoms: _622  and  _623
REMARK  241  A    between atoms: _628  and  _630
REMARK  242  A    between atoms: _630  and  _631
REMARK  243  A    between atoms: _634  and  _636
REMARK  244  A    between atoms: _636  and  _637
REMARK  245  A    between atoms: _636  and  _639
REMARK  246  A    between atoms: _639  and  _640
REMARK  247  A    between atoms: _640  and  _641
REMARK  248  A    between atoms: _641  and  _642
REMARK  249  A    between atoms: _651  and  _653
REMARK  250  A    between atoms: _653  and  _654
REMARK  251  A    between atoms: _653  and  _656
REMARK  252  A    between atoms: _656  and  _657
REMARK  253  A    between atoms: _660  and  _662
REMARK  254  A    between atoms: _662  and  _663
REMARK  255  A    between atoms: _662  and  _665
REMARK  256  A    between atoms: _665  and  _666
REMARK  257  A    between atoms: _669  and  _671
REMARK  258  A    between atoms: _671  and  _672
REMARK  259  A    between atoms: _671  and  _674
REMARK  260  A    between atoms: _674  and  _675
REMARK                            x       y       z     vdW  Elec       q    Type
REMARK                         _______ _______ _______ _____ _____    ______ ____
ROOT
ATOM      1  O   HOH     1     -10.043  16.070  14.489  0.00  0.00    +0.000 OA
ENDROOT
TORSDOF 0
REMARK  Name = ../refined-set-2016/1b32/1b32_pocket.pdb
REMARK  260 active torsions:
REMARK  status: ('A' for Active; 'I' for Inactive)
REMARK    1  A    between atoms: _1  and  _3
REMARK    2  A    between atoms: _3  and  _4
REMARK    3  A    between atoms: _3  and  _6
REMARK    4  A    between atoms: _6  and  _7
REMARK    5  A    between atoms: _12  and  _14
REMARK    6  A    between atoms: _14  and  _15
REMARK    7  A    between atoms: _14  and  _17
REMARK    8  A    between atoms: _17  and  _18
REMARK    9  A    between atoms: _20  and  _22
REMARK   10  A    between atoms: _22  and  _23
REMARK   11  A    between atoms: _22  and  _25
REMARK   12  A    between atoms: _25  and  _26
REMARK   13  A    between atoms: _26  and  _27
REMARK   14  A    between atoms: _32  and  _34
REMARK   15  A    between atoms: _34  and  _35
REMARK   16  A    between atoms: _34  and  _37
REMARK   17  A    between atoms: _37  and  _38
REMARK   18  A    between atoms: _41  and  _43
REMARK   19  A    between atoms: _43  and  _44
REMARK   20  A    between atoms: _43  and  _46
REMARK   21  A    between atoms: _46  and  _47
REMARK   22  A    between atoms: _47  and  _48
REMARK   23  A    between atoms: _51  and  _53
REMARK   24  A    between atoms: _53  and  _54
REMARK   25  A    between atoms: _56  and  _58
REMARK   26  A    between atoms: _58  and  _59
REMARK   27  A    between atoms: _58  and  _61
REMARK   28  A    between atoms: _65  and  _66
REMARK   29  A    between atoms: _71  and  _73
REMARK   30  A    between atoms: _73  and  _74
REMARK   31  A    between atoms: _73  and  _76
REMARK   32  A    between atoms: _76  and  _77
REMARK   33  A    between atoms: _77  and  _78
REMARK   34  A    between atoms: _81  and  _83
REMARK   35  A    between atoms: _83  and  _84
REMARK   36  A    between atoms: _83  and  _86
REMARK   37  A    between atoms: _86  and  _87
REMARK   38  A    between atoms: _89  and  _91
REMARK   39  A    between atoms: _91  and  _92
REMARK   40  A    between atoms: _91  and  _94
REMARK   41  A    between atoms: _94  and  _95
REMARK   42  A    between atoms: _100  and  _102
REMARK   43  A    between atoms: _102  and  _103
REMARK   44  A    between atoms: _102  and  _105
REMARK   45  A    between atoms: _105  and  _106
REMARK   46  A    between atoms: _106  and  _107
REMARK   47  A    between atoms: _107  and  _108
REMARK   48  A    between atoms: _118  and  _119
REMARK   49  A    between atoms: _124  and  _126
REMARK   50  A    between atoms: _126  and  _127
REMARK   51  A    between atoms: _126  and  _129
REMARK   52  A    between atoms: _129  and  _130
REMARK   53  A    between atoms: _135  and  _136
REMARK   54  A    between atoms: _138  and  _140
REMARK   55  A    between atoms: _140  and  _141
REMARK   56  A    between atoms: _140  and  _143
REMARK   57  A    between atoms: _143  and  _144
REMARK   58  A    between atoms: _149  and  _150
REMARK   59  A    between atoms: _152  and  _154
REMARK   60  A    between atoms: _154  and  _155
REMARK   61  A    between atoms: _154  and  _157
REMARK   62  A    between atoms: _160  and  _162
REMARK   63  A    between atoms: _162  and  _163
REMARK   64  A    between atoms: _162  and  _165
REMARK   65  A    between atoms: _165  and  _166
REMARK   66  A    between atoms: _172  and  _173
REMARK   67  A    between atoms: _178  and  _180
REMARK   68  A    between atoms: _180  and  _181
REMARK   69  A    between atoms: _180  and  _183
REMARK   70  A    between atoms: _183  and  _184
REMARK   71  A    between atoms: _186  and  _188
REMARK   72  A    between atoms: _188  and  _189
REMARK   73  A    between atoms: _188  and  _191
REMARK   74  A    between atoms: _191  and  _192
REMARK   75  A    between atoms: _197  and  _198
REMARK   76  A    between atoms: _200  and  _202
REMARK   77  A    between atoms: _202  and  _203
REMARK   78  A    between atoms: _202  and  _205
REMARK   79  A    between atoms: _205  and  _206
REMARK   80  A    between atoms: _211  and  _213
REMARK   81  A    between atoms: _213  and  _214
REMARK   82  A    between atoms: _213  and  _216
REMARK   83  A    between atoms: _216  and  _217
REMARK   84  A    between atoms: _222  and  _224
REMARK   85  A    between atoms: _224  and  _225
REMARK   86  A    between atoms: _224  and  _227
REMARK   87  A    between atoms: _227  and  _228
REMARK   88  A    between atoms: _228  and  _229
REMARK   89  A    between atoms: _231  and  _233
REMARK   90  A    between atoms: _233  and  _234
REMARK   91  A    between atoms: _233  and  _236
REMARK   92  A    between atoms: _236  and  _237
REMARK   93  A    between atoms: _242  and  _243
REMARK   94  A    between atoms: _245  and  _247
REMARK   95  A    between atoms: _247  and  _248
REMARK   96  A    between atoms: _247  and  _250
REMARK   97  A    between atoms: _250  and  _251
REMARK   98  A    between atoms: _254  and  _256
REMARK   99  A    between atoms: _256  and  _257
REMARK  100  A    between atoms: _256  and  _259
REMARK  101  A    between atoms: _259  and  _260
REMARK  102  A    between atoms: _260  and  _477
REMARK  103  A    between atoms: _261  and  _263
REMARK  104  A    between atoms: _263  and  _264
REMARK  105  A    between atoms: _263  and  _266
REMARK  106  A    between atoms: _266  and  _267
REMARK  107  A    between atoms: _270  and  _272
REMARK  108  A    between atoms: _272  and  _273
REMARK  109  A    between atoms: _272  and  _275
REMARK  110  A    between atoms: _275  and  _276
REMARK  111  A    between atoms: _281  and  _282
REMARK  112  A    between atoms: _284  and  _286
REMARK  113  A    between atoms: _286  and  _287
REMARK  114  A    between atoms: _286  and  _289
REMARK  115  A    between atoms: _289  and  _290
REMARK  116  A    between atoms: _295  and  _296
REMARK  117  A    between atoms: _298  and  _300
REMARK  118  A    between atoms: _300  and  _301
REMARK  119  A    between atoms: _300  and  _303
REMARK  120  A    between atoms: _303  and  _304
REMARK  121  A    between atoms: _304  and  _305
REMARK  122  A    between atoms: _308  and  _310
REMARK  123  A    between atoms: _310  and  _311
REMARK  124  A    between atoms: _310  and  _313
REMARK  125  A    between atoms: _313  and  _314
REMARK  126  A    between atoms: _319  and  _320
REMARK  127  A    between atoms: _322  and  _324
REMARK  128  A    between atoms: _324  and  _325
REMARK  129  A    between atoms: _324  and  _327
REMARK  130  A    between atoms: _327  and  _328
REMARK  131  A    between atoms: _333  and  _335
REMARK  132  A    between atoms: _335  and  _336
REMARK  133  A    between atoms: _335  and  _338
REMARK  134  A    between atoms: _338  and  _339
REMARK  135  A    between atoms: _342  and  _344
REMARK  136  A    between atoms: _344  and  _345
REMARK  137  A    between atoms: _344  and  _347
REMARK  138  A    between atoms: _347  and  _348
REMARK  139  A    between atoms: _353  and  _355
REMARK  140  A    between atoms: _355  and  _356
REMARK  141  A    between atoms: _355  and  _358
REMARK  142  A    between atoms: _358  and  _359
REMARK  143  A    between atoms: _369  and  _371
REMARK  144  A    between atoms: _371  and  _372
REMARK  145  A    between atoms: _371  and  _374
REMARK  146  A    between atoms: _374  and  _375
REMARK  147  A    between atoms: _381  and  _383
REMARK  148  A    between atoms: _383  and  _384
REMARK  149  A    between atoms: _383  and  _386
REMARK  150  A    between atoms: _386  and  _387
REMARK  151  A    between atoms: _390  and  _392
REMARK  152  A    between atoms: _392  and  _393
REMARK  153  A    between atoms: _392  and  _395
REMARK  154  A    between atoms: _395  and  _396
REMARK  155  A    between atoms: _399  and  _401
REMARK  156  A    between atoms: _401  and  _402
REMARK  157  A    between atoms: _401  and  _404
REMARK  158  A    between atoms: _404  and  _405
REMARK  159  A    between atoms: _405  and  _406
REMARK  160  A    between atoms: _406  and  _407
REMARK  161  A    between atoms: _416  and  _418
REMARK  162  A    between atoms: _418  and  _419
REMARK  163  A    between atoms: _418  and  _421
REMARK  164  A    between atoms: _421  and  _422
REMARK  165  A    between atoms: _427  and  _429
REMARK  166  A    between atoms: _429  and  _430
REMARK  167  A    between atoms: _429  and  _432
REMARK  168  A    between atoms: _432  and  _433
REMARK  169  A    between atoms: _433  and  _434
REMARK  170  A    between atoms: _434  and  _435
REMARK  171  A    between atoms: _444  and  _446
REMARK  172  A    between atoms: _446  and  _447
REMARK  173  A    between atoms: _450  and  _452
REMARK  174  A    between atoms: _452  and  _453
REMARK  175  A    between atoms: _455  and  _457
REMARK  176  A    between atoms: _457  and  _458
REMARK  177  A    between atoms: _457  and  _460
REMARK  178  A    between atoms: _460  and  _461
REMARK  179  A    between atoms: _471  and  _473
REMARK  180  A    between atoms: _473  and  _474
REMARK  181  A    between atoms: _473  and  _476
REMARK  182  A    between atoms: _476  and  _477
REMARK  183  A    between atoms: _478  and  _480
REMARK  184  A    between atoms: _480  and  _481
REMARK  185  A    between atoms: _484  and  _486
REMARK  186  A    between atoms: _486  and  _487
REMARK  187  A    between atoms: _486  and  _489
REMARK  188  A    between atoms: _489  and  _490
REMARK  189  A    between atoms: _493  and  _495
REMARK  190  A    between atoms: _495  and  _496
REMARK  191  A    between atoms: _495  and  _498
REMARK  192  A    between atoms: _498  and  _499
REMARK  193  A    between atoms: _504  and  _505
REMARK  194  A    between atoms: _507  and  _509
REMARK  195  A    between atoms: _509  and  _510
REMARK  196  A    between atoms: _509  and  _512
REMARK  197  A    between atoms: _512  and  _513
REMARK  198  A    between atoms: _515  and  _517
REMARK  199  A    between atoms: _517  and  _518
REMARK  200  A    between atoms: _517  and  _520
REMARK  201  A    between atoms: _520  and  _521
REMARK  202  A    between atoms: _527  and  _529
REMARK  203  A    between atoms: _529  and  _530
REMARK  204  A    between atoms: _529  and  _532
REMARK  205  A    between atoms: _532  and  _533
REMARK  206  A    between atoms: _536  and  _538
REMARK  207  A    between atoms: _538  and  _539
REMARK  208  A    between atoms: _538  and  _541
REMARK  209  A    between atoms: _541  and  _542
REMARK  210  A    between atoms: _544  and  _546
REMARK  211  A    between atoms: _546  and  _547
REMARK  212  A    between atoms: _546  and  _549
REMARK  213  A    between atoms: _549  and  _550
REMARK  214  A    between atoms: _555  and  _557
REMARK  215  A    between atoms: _557  and  _558
REMARK  216  A    between atoms: _557  and  _560
REMARK  217  A    between atoms: _560  and  _561
REMARK  218  A    between atoms: _566  and  _568
REMARK  219  A    between atoms: _568  and  _569
REMARK  220  A    between atoms: _568  and  _571
REMARK  221  A    between atoms: _571  and  _572
REMARK  222  A    between atoms: _575  and  _577
REMARK  223  A    between atoms: _577  and  _578
REMARK  224  A    between atoms: _581  and  _583
REMARK  225  A    between atoms: _583  and  _584
REMARK  226  A    between atoms: _583  and  _586
REMARK  227  A    between atoms: _586  and  _587
REMARK  228  A    between atoms: _592  and  _593
REMARK  229  A    between atoms: _595  and  _597
REMARK  230  A    between atoms: _597  and  _598
REMARK  231  A    between atoms: _597  and  _600
REMARK  232  A    between atoms: _600  and  _601
REMARK  233  A    between atoms: _606  and  _607
REMARK  234  A    between atoms: _609  and  _611
REMARK  235  A    between atoms: _611  and  _612
REMARK  236  A    between atoms: _611  and  _614
REMARK  237  A    between atoms: _617  and  _619
REMARK  238  A    between atoms: _619  and  _620
REMARK  239  A    between atoms: _619  and  _622
REMARK  240  A    between atoms: _622  and  _623
REMARK  241  A    between atoms: _628  and  _630
REMARK  242  A    between atoms: _630  and  _631
REMARK  243  A    between atoms: _634  and  _636
REMARK  244  A    between atoms: _636  and  _637
REMARK  245  A    between atoms: _636  and  _639
REMARK  246  A    between atoms: _639  and  _640
REMARK  247  A    between atoms: _640  and  _641
REMARK  248  A    between atoms: _641  and  _642
REMARK  249  A    between atoms: _651  and  _653
REMARK  250  A    between atoms: _653  and  _654
REMARK  251  A    between atoms: _653  and  _656
REMARK  252  A    between atoms: _656  and  _657
REMARK  253  A    between atoms: _660  and  _662
REMARK  254  A    between atoms: _662  and  _663
REMARK  255  A    between atoms: _662  and  _665
REMARK  256  A    between atoms: _665  and  _666
REMARK  257  A    between atoms: _669  and  _671
REMARK  258  A    between atoms: _671  and  _672
REMARK  259  A    between atoms: _671  and  _674
REMARK  260  A    between atoms: _674  and  _675
REMARK                            x       y       z     vdW  Elec       q    Type
REMARK                         _______ _______ _______ _____ _____    ______ ____
ROOT
ATOM      1  O   HOH     1      -4.822  25.220  12.477  0.00  0.00    +0.000 OA
ENDROOT
TORSDOF 0
REMARK  Name = ../refined-set-2016/1b32/1b32_pocket.pdb
REMARK  260 active torsions:
REMARK  status: ('A' for Active; 'I' for Inactive)
REMARK    1  A    between atoms: _1  and  _3
REMARK    2  A    between atoms: _3  and  _4
REMARK    3  A    between atoms: _3  and  _6
REMARK    4  A    between atoms: _6  and  _7
REMARK    5  A    between atoms: _12  and  _14
REMARK    6  A    between atoms: _14  and  _15
REMARK    7  A    between atoms: _14  and  _17
REMARK    8  A    between atoms: _17  and  _18
REMARK    9  A    between atoms: _20  and  _22
REMARK   10  A    between atoms: _22  and  _23
REMARK   11  A    between atoms: _22  and  _25
REMARK   12  A    between atoms: _25  and  _26
REMARK   13  A    between atoms: _26  and  _27
REMARK   14  A    between atoms: _32  and  _34
REMARK   15  A    between atoms: _34  and  _35
REMARK   16  A    between atoms: _34  and  _37
REMARK   17  A    between atoms: _37  and  _38
REMARK   18  A    between atoms: _41  and  _43
REMARK   19  A    between atoms: _43  and  _44
REMARK   20  A    between atoms: _43  and  _46
REMARK   21  A    between atoms: _46  and  _47
REMARK   22  A    between atoms: _47  and  _48
REMARK   23  A    between atoms: _51  and  _53
REMARK   24  A    between atoms: _53  and  _54
REMARK   25  A    between atoms: _56  and  _58
REMARK   26  A    between atoms: _58  and  _59
REMARK   27  A    between atoms: _58  and  _61
REMARK   28  A    between atoms: _65  and  _66
REMARK   29  A    between atoms: _71  and  _73
REMARK   30  A    between atoms: _73  and  _74
REMARK   31  A    between atoms: _73  and  _76
REMARK   32  A    between atoms: _76  and  _77
REMARK   33  A    between atoms: _77  and  _78
REMARK   34  A    between atoms: _81  and  _83
REMARK   35  A    between atoms: _83  and  _84
REMARK   36  A    between atoms: _83  and  _86
REMARK   37  A    between atoms: _86  and  _87
REMARK   38  A    between atoms: _89  and  _91
REMARK   39  A    between atoms: _91  and  _92
REMARK   40  A    between atoms: _91  and  _94
REMARK   41  A    between atoms: _94  and  _95
REMARK   42  A    between atoms: _100  and  _102
REMARK   43  A    between atoms: _102  and  _103
REMARK   44  A    between atoms: _102  and  _105
REMARK   45  A    between atoms: _105  and  _106
REMARK   46  A    between atoms: _106  and  _107
REMARK   47  A    between atoms: _107  and  _108
REMARK   48  A    between atoms: _118  and  _119
REMARK   49  A    between atoms: _124  and  _126
REMARK   50  A    between atoms: _126  and  _127
REMARK   51  A    between atoms: _126  and  _129
REMARK   52  A    between atoms: _129  and  _130
REMARK   53  A    between atoms: _135  and  _136
REMARK   54  A    between atoms: _138  and  _140
REMARK   55  A    between atoms: _140  and  _141
REMARK   56  A    between atoms: _140  and  _143
REMARK   57  A    between atoms: _143  and  _144
REMARK   58  A    between atoms: _149  and  _150
REMARK   59  A    between atoms: _152  and  _154
REMARK   60  A    between atoms: _154  and  _155
REMARK   61  A    between atoms: _154  and  _157
REMARK   62  A    between atoms: _160  and  _162
REMARK   63  A    between atoms: _162  and  _163
REMARK   64  A    between atoms: _162  and  _165
REMARK   65  A    between atoms: _165  and  _166
REMARK   66  A    between atoms: _172  and  _173
REMARK   67  A    between atoms: _178  and  _180
REMARK   68  A    between atoms: _180  and  _181
REMARK   69  A    between atoms: _180  and  _183
REMARK   70  A    between atoms: _183  and  _184
REMARK   71  A    between atoms: _186  and  _188
REMARK   72  A    between atoms: _188  and  _189
REMARK   73  A    between atoms: _188  and  _191
REMARK   74  A    between atoms: _191  and  _192
REMARK   75  A    between atoms: _197  and  _198
REMARK   76  A    between atoms: _200  and  _202
REMARK   77  A    between atoms: _202  and  _203
REMARK   78  A    between atoms: _202  and  _205
REMARK   79  A    between atoms: _205  and  _206
REMARK   80  A    between atoms: _211  and  _213
REMARK   81  A    between atoms: _213  and  _214
REMARK   82  A    between atoms: _213  and  _216
REMARK   83  A    between atoms: _216  and  _217
REMARK   84  A    between atoms: _222  and  _224
REMARK   85  A    between atoms: _224  and  _225
REMARK   86  A    between atoms: _224  and  _227
REMARK   87  A    between atoms: _227  and  _228
REMARK   88  A    between atoms: _228  and  _229
REMARK   89  A    between atoms: _231  and  _233
REMARK   90  A    between atoms: _233  and  _234
REMARK   91  A    between atoms: _233  and  _236
REMARK   92  A    between atoms: _236  and  _237
REMARK   93  A    between atoms: _242  and  _243
REMARK   94  A    between atoms: _245  and  _247
REMARK   95  A    between atoms: _247  and  _248
REMARK   96  A    between atoms: _247  and  _250
REMARK   97  A    between atoms: _250  and  _251
REMARK   98  A    between atoms: _254  and  _256
REMARK   99  A    between atoms: _256  and  _257
REMARK  100  A    between atoms: _256  and  _259
REMARK  101  A    between atoms: _259  and  _260
REMARK  102  A    between atoms: _260  and  _477
REMARK  103  A    between atoms: _261  and  _263
REMARK  104  A    between atoms: _263  and  _264
REMARK  105  A    between atoms: _263  and  _266
REMARK  106  A    between atoms: _266  and  _267
REMARK  107  A    between atoms: _270  and  _272
REMARK  108  A    between atoms: _272  and  _273
REMARK  109  A    between atoms: _272  and  _275
REMARK  110  A    between atoms: _275  and  _276
REMARK  111  A    between atoms: _281  and  _282
REMARK  112  A    between atoms: _284  and  _286
REMARK  113  A    between atoms: _286  and  _287
REMARK  114  A    between atoms: _286  and  _289
REMARK  115  A    between atoms: _289  and  _290
REMARK  116  A    between atoms: _295  and  _296
REMARK  117  A    between atoms: _298  and  _300
REMARK  118  A    between atoms: _300  and  _301
REMARK  119  A    between atoms: _300  and  _303
REMARK  120  A    between atoms: _303  and  _304
REMARK  121  A    between atoms: _304  and  _305
REMARK  122  A    between atoms: _308  and  _310
REMARK  123  A    between atoms: _310  and  _311
REMARK  124  A    between atoms: _310  and  _313
REMARK  125  A    between atoms: _313  and  _314
REMARK  126  A    between atoms: _319  and  _320
REMARK  127  A    between atoms: _322  and  _324
REMARK  128  A    between atoms: _324  and  _325
REMARK  129  A    between atoms: _324  and  _327
REMARK  130  A    between atoms: _327  and  _328
REMARK  131  A    between atoms: _333  and  _335
REMARK  132  A    between atoms: _335  and  _336
REMARK  133  A    between atoms: _335  and  _338
REMARK  134  A    between atoms: _338  and  _339
REMARK  135  A    between atoms: _342  and  _344
REMARK  136  A    between atoms: _344  and  _345
REMARK  137  A    between atoms: _344  and  _347
REMARK  138  A    between atoms: _347  and  _348
REMARK  139  A    between atoms: _353  and  _355
REMARK  140  A    between atoms: _355  and  _356
REMARK  141  A    between atoms: _355  and  _358
REMARK  142  A    between atoms: _358  and  _359
REMARK  143  A    between atoms: _369  and  _371
REMARK  144  A    between atoms: _371  and  _372
REMARK  145  A    between atoms: _371  and  _374
REMARK  146  A    between atoms: _374  and  _375
REMARK  147  A    between atoms: _381  and  _383
REMARK  148  A    between atoms: _383  and  _384
REMARK  149  A    between atoms: _383  and  _386
REMARK  150  A    between atoms: _386  and  _387
REMARK  151  A    between atoms: _390  and  _392
REMARK  152  A    between atoms: _392  and  _393
REMARK  153  A    between atoms: _392  and  _395
REMARK  154  A    between atoms: _395  and  _396
REMARK  155  A    between atoms: _399  and  _401
REMARK  156  A    between atoms: _401  and  _402
REMARK  157  A    between atoms: _401  and  _404
REMARK  158  A    between atoms: _404  and  _405
REMARK  159  A    between atoms: _405  and  _406
REMARK  160  A    between atoms: _406  and  _407
REMARK  161  A    between atoms: _416  and  _418
REMARK  162  A    between atoms: _418  and  _419
REMARK  163  A    between atoms: _418  and  _421
REMARK  164  A    between atoms: _421  and  _422
REMARK  165  A    between atoms: _427  and  _429
REMARK  166  A    between atoms: _429  and  _430
REMARK  167  A    between atoms: _429  and  _432
REMARK  168  A    between atoms: _432  and  _433
REMARK  169  A    between atoms: _433  and  _434
REMARK  170  A    between atoms: _434  and  _435
REMARK  171  A    between atoms: _444  and  _446
REMARK  172  A    between atoms: _446  and  _447
REMARK  173  A    between atoms: _450  and  _452
REMARK  174  A    between atoms: _452  and  _453
REMARK  175  A    between atoms: _455  and  _457
REMARK  176  A    between atoms: _457  and  _458
REMARK  177  A    between atoms: _457  and  _460
REMARK  178  A    between atoms: _460  and  _461
REMARK  179  A    between atoms: _471  and  _473
REMARK  180  A    between atoms: _473  and  _474
REMARK  181  A    between atoms: _473  and  _476
REMARK  182  A    between atoms: _476  and  _477
REMARK  183  A    between atoms: _478  and  _480
REMARK  184  A    between atoms: _480  and  _481
REMARK  185  A    between atoms: _484  and  _486
REMARK  186  A    between atoms: _486  and  _487
REMARK  187  A    between atoms: _486  and  _489
REMARK  188  A    between atoms: _489  and  _490
REMARK  189  A    between atoms: _493  and  _495
REMARK  190  A    between atoms: _495  and  _496
REMARK  191  A    between atoms: _495  and  _498
REMARK  192  A    between atoms: _498  and  _499
REMARK  193  A    between atoms: _504  and  _505
REMARK  194  A    between atoms: _507  and  _509
REMARK  195  A    between atoms: _509  and  _510
REMARK  196  A    between atoms: _509  and  _512
REMARK  197  A    between atoms: _512  and  _513
REMARK  198  A    between atoms: _515  and  _517
REMARK  199  A    between atoms: _517  and  _518
REMARK  200  A    between atoms: _517  and  _520
REMARK  201  A    between atoms: _520  and  _521
REMARK  202  A    between atoms: _527  and  _529
REMARK  203  A    between atoms: _529  and  _530
REMARK  204  A    between atoms: _529  and  _532
REMARK  205  A    between atoms: _532  and  _533
REMARK  206  A    between atoms: _536  and  _538
REMARK  207  A    between atoms: _538  and  _539
REMARK  208  A    between atoms: _538  and  _541
REMARK  209  A    between atoms: _541  and  _542
REMARK  210  A    between atoms: _544  and  _546
REMARK  211  A    between atoms: _546  and  _547
REMARK  212  A    between atoms: _546  and  _549
REMARK  213  A    between atoms: _549  and  _550
REMARK  214  A    between atoms: _555  and  _557
REMARK  215  A    between atoms: _557  and  _558
REMARK  216  A    between atoms: _557  and  _560
REMARK  217  A    between atoms: _560  and  _561
REMARK  218  A    between atoms: _566  and  _568
REMARK  219  A    between atoms: _568  and  _569
REMARK  220  A    between atoms: _568  and  _571
REMARK  221  A    between atoms: _571  and  _572
REMARK  222  A    between atoms: _575  and  _577
REMARK  223  A    between atoms: _577  and  _578
REMARK  224  A    between atoms: _581  and  _583
REMARK  225  A    between atoms: _583  and  _584
REMARK  226  A    between atoms: _583  and  _586
REMARK  227  A    between atoms: _586  and  _587
REMARK  228  A    between atoms: _592  and  _593
REMARK  229  A    between atoms: _595  and  _597
REMARK  230  A    between atoms: _597  and  _598
REMARK  231  A    between atoms: _597  and  _600
REMARK  232  A    between atoms: _600  and  _601
REMARK  233  A    between atoms: _606  and  _607
REMARK  234  A    between atoms: _609  and  _611
REMARK  235  A    between atoms: _611  and  _612
REMARK  236  A    between atoms: _611  and  _614
REMARK  237  A    between atoms: _617  and  _619
REMARK  238  A    between atoms: _619  and  _620
REMARK  239  A    between atoms: _619  and  _622
REMARK  240  A    between atoms: _622  and  _623
REMARK  241  A    between atoms: _628  and  _630
REMARK  242  A    between atoms: _630  and  _631
REMARK  243  A    between atoms: _634  and  _636
REMARK  244  A    between atoms: _636  and  _637
REMARK  245  A    between atoms: _636  and  _639
REMARK  246  A    between atoms: _639  and  _640
REMARK  247  A    between atoms: _640  and  _641
REMARK  248  A    between atoms: _641  and  _642
REMARK  249  A    between atoms: _651  and  _653
REMARK  250  A    between atoms: _653  and  _654
REMARK  251  A    between atoms: _653  and  _656
REMARK  252  A    between atoms: _656  and  _657
REMARK  253  A    between atoms: _660  and  _662
REMARK  254  A    between atoms: _662  and  _663
REMARK  255  A    between atoms: _662  and  _665
REMARK  256  A    between atoms: _665  and  _666
REMARK  257  A    between atoms: _669  and  _671
REMARK  258  A    between atoms: _671  and  _672
REMARK  259  A    between atoms: _671  and  _674
REMARK  260  A    between atoms: _674  and  _675
REMARK                            x       y       z     vdW  Elec       q    Type
REMARK                         _______ _______ _______ _____ _____    ______ ____
ROOT
ATOM      1  O   HOH     1       3.755  12.838  11.938  0.00  0.00    +0.000 OA
ENDROOT
TORSDOF 0
REMARK  Name = ../refined-set-2016/1b32/1b32_pocket.pdb
REMARK  260 active torsions:
REMARK  status: ('A' for Active; 'I' for Inactive)
REMARK    1  A    between atoms: _1  and  _3
REMARK    2  A    between atoms: _3  and  _4
REMARK    3  A    between atoms: _3  and  _6
REMARK    4  A    between atoms: _6  and  _7
REMARK    5  A    between atoms: _12  and  _14
REMARK    6  A    between atoms: _14  and  _15
REMARK    7  A    between atoms: _14  and  _17
REMARK    8  A    between atoms: _17  and  _18
REMARK    9  A    between atoms: _20  and  _22
REMARK   10  A    between atoms: _22  and  _23
REMARK   11  A    between atoms: _22  and  _25
REMARK   12  A    between atoms: _25  and  _26
REMARK   13  A    between atoms: _26  and  _27
REMARK   14  A    between atoms: _32  and  _34
REMARK   15  A    between atoms: _34  and  _35
REMARK   16  A    between atoms: _34  and  _37
REMARK   17  A    between atoms: _37  and  _38
REMARK   18  A    between atoms: _41  and  _43
REMARK   19  A    between atoms: _43  and  _44
REMARK   20  A    between atoms: _43  and  _46
REMARK   21  A    between atoms: _46  and  _47
REMARK   22  A    between atoms: _47  and  _48
REMARK   23  A    between atoms: _51  and  _53
REMARK   24  A    between atoms: _53  and  _54
REMARK   25  A    between atoms: _56  and  _58
REMARK   26  A    between atoms: _58  and  _59
REMARK   27  A    between atoms: _58  and  _61
REMARK   28  A    between atoms: _65  and  _66
REMARK   29  A    between atoms: _71  and  _73
REMARK   30  A    between atoms: _73  and  _74
REMARK   31  A    between atoms: _73  and  _76
REMARK   32  A    between atoms: _76  and  _77
REMARK   33  A    between atoms: _77  and  _78
REMARK   34  A    between atoms: _81  and  _83
REMARK   35  A    between atoms: _83  and  _84
REMARK   36  A    between atoms: _83  and  _86
REMARK   37  A    between atoms: _86  and  _87
REMARK   38  A    between atoms: _89  and  _91
REMARK   39  A    between atoms: _91  and  _92
REMARK   40  A    between atoms: _91  and  _94
REMARK   41  A    between atoms: _94  and  _95
REMARK   42  A    between atoms: _100  and  _102
REMARK   43  A    between atoms: _102  and  _103
REMARK   44  A    between atoms: _102  and  _105
REMARK   45  A    between atoms: _105  and  _106
REMARK   46  A    between atoms: _106  and  _107
REMARK   47  A    between atoms: _107  and  _108
REMARK   48  A    between atoms: _118  and  _119
REMARK   49  A    between atoms: _124  and  _126
REMARK   50  A    between atoms: _126  and  _127
REMARK   51  A    between atoms: _126  and  _129
REMARK   52  A    between atoms: _129  and  _130
REMARK   53  A    between atoms: _135  and  _136
REMARK   54  A    between atoms: _138  and  _140
REMARK   55  A    between atoms: _140  and  _141
REMARK   56  A    between atoms: _140  and  _143
REMARK   57  A    between atoms: _143  and  _144
REMARK   58  A    between atoms: _149  and  _150
REMARK   59  A    between atoms: _152  and  _154
REMARK   60  A    between atoms: _154  and  _155
REMARK   61  A    between atoms: _154  and  _157
REMARK   62  A    between atoms: _160  and  _162
REMARK   63  A    between atoms: _162  and  _163
REMARK   64  A    between atoms: _162  and  _165
REMARK   65  A    between atoms: _165  and  _166
REMARK   66  A    between atoms: _172  and  _173
REMARK   67  A    between atoms: _178  and  _180
REMARK   68  A    between atoms: _180  and  _181
REMARK   69  A    between atoms: _180  and  _183
REMARK   70  A    between atoms: _183  and  _184
REMARK   71  A    between atoms: _186  and  _188
REMARK   72  A    between atoms: _188  and  _189
REMARK   73  A    between atoms: _188  and  _191
REMARK   74  A    between atoms: _191  and  _192
REMARK   75  A    between atoms: _197  and  _198
REMARK   76  A    between atoms: _200  and  _202
REMARK   77  A    between atoms: _202  and  _203
REMARK   78  A    between atoms: _202  and  _205
REMARK   79  A    between atoms: _205  and  _206
REMARK   80  A    between atoms: _211  and  _213
REMARK   81  A    between atoms: _213  and  _214
REMARK   82  A    between atoms: _213  and  _216
REMARK   83  A    between atoms: _216  and  _217
REMARK   84  A    between atoms: _222  and  _224
REMARK   85  A    between atoms: _224  and  _225
REMARK   86  A    between atoms: _224  and  _227
REMARK   87  A    between atoms: _227  and  _228
REMARK   88  A    between atoms: _228  and  _229
REMARK   89  A    between atoms: _231  and  _233
REMARK   90  A    between atoms: _233  and  _234
REMARK   91  A    between atoms: _233  and  _236
REMARK   92  A    between atoms: _236  and  _237
REMARK   93  A    between atoms: _242  and  _243
REMARK   94  A    between atoms: _245  and  _247
REMARK   95  A    between atoms: _247  and  _248
REMARK   96  A    between atoms: _247  and  _250
REMARK   97  A    between atoms: _250  and  _251
REMARK   98  A    between atoms: _254  and  _256
REMARK   99  A    between atoms: _256  and  _257
REMARK  100  A    between atoms: _256  and  _259
REMARK  101  A    between atoms: _259  and  _260
REMARK  102  A    between atoms: _260  and  _477
REMARK  103  A    between atoms: _261  and  _263
REMARK  104  A    between atoms: _263  and  _264
REMARK  105  A    between atoms: _263  and  _266
REMARK  106  A    between atoms: _266  and  _267
REMARK  107  A    between atoms: _270  and  _272
REMARK  108  A    between atoms: _272  and  _273
REMARK  109  A    between atoms: _272  and  _275
REMARK  110  A    between atoms: _275  and  _276
REMARK  111  A    between atoms: _281  and  _282
REMARK  112  A    between atoms: _284  and  _286
REMARK  113  A    between atoms: _286  and  _287
REMARK  114  A    between atoms: _286  and  _289
REMARK  115  A    between atoms: _289  and  _290
REMARK  116  A    between atoms: _295  and  _296
REMARK  117  A    between atoms: _298  and  _300
REMARK  118  A    between atoms: _300  and  _301
REMARK  119  A    between atoms: _300  and  _303
REMARK  120  A    between atoms: _303  and  _304
REMARK  121  A    between atoms: _304  and  _305
REMARK  122  A    between atoms: _308  and  _310
REMARK  123  A    between atoms: _310  and  _311
REMARK  124  A    between atoms: _310  and  _313
REMARK  125  A    between atoms: _313  and  _314
REMARK  126  A    between atoms: _319  and  _320
REMARK  127  A    between atoms: _322  and  _324
REMARK  128  A    between atoms: _324  and  _325
REMARK  129  A    between atoms: _324  and  _327
REMARK  130  A    between atoms: _327  and  _328
REMARK  131  A    between atoms: _333  and  _335
REMARK  132  A    between atoms: _335  and  _336
REMARK  133  A    between atoms: _335  and  _338
REMARK  134  A    between atoms: _338  and  _339
REMARK  135  A    between atoms: _342  and  _344
REMARK  136  A    between atoms: _344  and  _345
REMARK  137  A    between atoms: _344  and  _347
REMARK  138  A    between atoms: _347  and  _348
REMARK  139  A    between atoms: _353  and  _355
REMARK  140  A    between atoms: _355  and  _356
REMARK  141  A    between atoms: _355  and  _358
REMARK  142  A    between atoms: _358  and  _359
REMARK  143  A    between atoms: _369  and  _371
REMARK  144  A    between atoms: _371  and  _372
REMARK  145  A    between atoms: _371  and  _374
REMARK  146  A    between atoms: _374  and  _375
REMARK  147  A    between atoms: _381  and  _383
REMARK  148  A    between atoms: _383  and  _384
REMARK  149  A    between atoms: _383  and  _386
REMARK  150  A    between atoms: _386  and  _387
REMARK  151  A    between atoms: _390  and  _392
REMARK  152  A    between atoms: _392  and  _393
REMARK  153  A    between atoms: _392  and  _395
REMARK  154  A    between atoms: _395  and  _396
REMARK  155  A    between atoms: _399  and  _401
REMARK  156  A    between atoms: _401  and  _402
REMARK  157  A    between atoms: _401  and  _404
REMARK  158  A    between atoms: _404  and  _405
REMARK  159  A    between atoms: _405  and  _406
REMARK  160  A    between atoms: _406  and  _407
REMARK  161  A    between atoms: _416  and  _418
REMARK  162  A    between atoms: _418  and  _419
REMARK  163  A    between atoms: _418  and  _421
REMARK  164  A    between atoms: _421  and  _422
REMARK  165  A    between atoms: _427  and  _429
REMARK  166  A    between atoms: _429  and  _430
REMARK  167  A    between atoms: _429  and  _432
REMARK  168  A    between atoms: _432  and  _433
REMARK  169  A    between atoms: _433  and  _434
REMARK  170  A    between atoms: _434  and  _435
REMARK  171  A    between atoms: _444  and  _446
REMARK  172  A    between atoms: _446  and  _447
REMARK  173  A    between atoms: _450  and  _452
REMARK  174  A    between atoms: _452  and  _453
REMARK  175  A    between atoms: _455  and  _457
REMARK  176  A    between atoms: _457  and  _458
REMARK  177  A    between atoms: _457  and  _460
REMARK  178  A    between atoms: _460  and  _461
REMARK  179  A    between atoms: _471  and  _473
REMARK  180  A    between atoms: _473  and  _474
REMARK  181  A    between atoms: _473  and  _476
REMARK  182  A    between atoms: _476  and  _477
REMARK  183  A    between atoms: _478  and  _480
REMARK  184  A    between atoms: _480  and  _481
REMARK  185  A    between atoms: _484  and  _486
REMARK  186  A    between atoms: _486  and  _487
REMARK  187  A    between atoms: _486  and  _489
REMARK  188  A    between atoms: _489  and  _490
REMARK  189  A    between atoms: _493  and  _495
REMARK  190  A    between atoms: _495  and  _496
REMARK  191  A    between atoms: _495  and  _498
REMARK  192  A    between atoms: _498  and  _499
REMARK  193  A    between atoms: _504  and  _505
REMARK  194  A    between atoms: _507  and  _509
REMARK  195  A    between atoms: _509  and  _510
REMARK  196  A    between atoms: _509  and  _512
REMARK  197  A    between atoms: _512  and  _513
REMARK  198  A    between atoms: _515  and  _517
REMARK  199  A    between atoms: _517  and  _518
REMARK  200  A    between atoms: _517  and  _520
REMARK  201  A    between atoms: _520  and  _521
REMARK  202  A    between atoms: _527  and  _529
REMARK  203  A    between atoms: _529  and  _530
REMARK  204  A    between atoms: _529  and  _532
REMARK  205  A    between atoms: _532  and  _533
REMARK  206  A    between atoms: _536  and  _538
REMARK  207  A    between atoms: _538  and  _539
REMARK  208  A    between atoms: _538  and  _541
REMARK  209  A    between atoms: _541  and  _542
REMARK  210  A    between atoms: _544  and  _546
REMARK  211  A    between atoms: _546  and  _547
REMARK  212  A    between atoms: _546  and  _549
REMARK  213  A    between atoms: _549  and  _550
REMARK  214  A    between atoms: _555  and  _557
REMARK  215  A    between atoms: _557  and  _558
REMARK  216  A    between atoms: _557  and  _560
REMARK  217  A    between atoms: _560  and  _561
REMARK  218  A    between atoms: _566  and  _568
REMARK  219  A    between atoms: _568  and  _569
REMARK  220  A    between atoms: _568  and  _571
REMARK  221  A    between atoms: _571  and  _572
REMARK  222  A    between atoms: _575  and  _577
REMARK  223  A    between atoms: _577  and  _578
REMARK  224  A    between atoms: _581  and  _583
REMARK  225  A    between atoms: _583  and  _584
REMARK  226  A    between atoms: _583  and  _586
REMARK  227  A    between atoms: _586  and  _587
REMARK  228  A    between atoms: _592  and  _593
REMARK  229  A    between atoms: _595  and  _597
REMARK  230  A    between atoms: _597  and  _598
REMARK  231  A    between atoms: _597  and  _600
REMARK  232  A    between atoms: _600  and  _601
REMARK  233  A    between atoms: _606  and  _607
REMARK  234  A    between atoms: _609  and  _611
REMARK  235  A    between atoms: _611  and  _612
REMARK  236  A    between atoms: _611  and  _614
REMARK  237  A    between atoms: _617  and  _619
REMARK  238  A    between atoms: _619  and  _620
REMARK  239  A    between atoms: _619  and  _622
REMARK  240  A    between atoms: _622  and  _623
REMARK  241  A    between atoms: _628  and  _630
REMARK  242  A    between atoms: _630  and  _631
REMARK  243  A    between atoms: _634  and  _636
REMARK  244  A    between atoms: _636  and  _637
REMARK  245  A    between atoms: _636  and  _639
REMARK  246  A    between atoms: _639  and  _640
REMARK  247  A    between atoms: _640  and  _641
REMARK  248  A    between atoms: _641  and  _642
REMARK  249  A    between atoms: _651  and  _653
REMARK  250  A    between atoms: _653  and  _654
REMARK  251  A    between atoms: _653  and  _656
REMARK  252  A    between atoms: _656  and  _657
REMARK  253  A    between atoms: _660  and  _662
REMARK  254  A    between atoms: _662  and  _663
REMARK  255  A    between atoms: _662  and  _665
REMARK  256  A    between atoms: _665  and  _666
REMARK  257  A    between atoms: _669  and  _671
REMARK  258  A    between atoms: _671  and  _672
REMARK  259  A    between atoms: _671  and  _674
REMARK  260  A    between atoms: _674  and  _675
REMARK                            x       y       z     vdW  Elec       q    Type
REMARK                         _______ _______ _______ _____ _____    ______ ____
ROOT
ATOM      1  O   HOH     1       4.428  13.578   9.332  0.00  0.00    +0.000 OA
ENDROOT
TORSDOF 0
REMARK  Name = ../refined-set-2016/1b32/1b32_pocket.pdb
REMARK  260 active torsions:
REMARK  status: ('A' for Active; 'I' for Inactive)
REMARK    1  A    between atoms: _1  and  _3
REMARK    2  A    between atoms: _3  and  _4
REMARK    3  A    between atoms: _3  and  _6
REMARK    4  A    between atoms: _6  and  _7
REMARK    5  A    between atoms: _12  and  _14
REMARK    6  A    between atoms: _14  and  _15
REMARK    7  A    between atoms: _14  and  _17
REMARK    8  A    between atoms: _17  and  _18
REMARK    9  A    between atoms: _20  and  _22
REMARK   10  A    between atoms: _22  and  _23
REMARK   11  A    between atoms: _22  and  _25
REMARK   12  A    between atoms: _25  and  _26
REMARK   13  A    between atoms: _26  and  _27
REMARK   14  A    between atoms: _32  and  _34
REMARK   15  A    between atoms: _34  and  _35
REMARK   16  A    between atoms: _34  and  _37
REMARK   17  A    between atoms: _37  and  _38
REMARK   18  A    between atoms: _41  and  _43
REMARK   19  A    between atoms: _43  and  _44
REMARK   20  A    between atoms: _43  and  _46
REMARK   21  A    between atoms: _46  and  _47
REMARK   22  A    between atoms: _47  and  _48
REMARK   23  A    between atoms: _51  and  _53
REMARK   24  A    between atoms: _53  and  _54
REMARK   25  A    between atoms: _56  and  _58
REMARK   26  A    between atoms: _58  and  _59
REMARK   27  A    between atoms: _58  and  _61
REMARK   28  A    between atoms: _65  and  _66
REMARK   29  A    between atoms: _71  and  _73
REMARK   30  A    between atoms: _73  and  _74
REMARK   31  A    between atoms: _73  and  _76
REMARK   32  A    between atoms: _76  and  _77
REMARK   33  A    between atoms: _77  and  _78
REMARK   34  A    between atoms: _81  and  _83
REMARK   35  A    between atoms: _83  and  _84
REMARK   36  A    between atoms: _83  and  _86
REMARK   37  A    between atoms: _86  and  _87
REMARK   38  A    between atoms: _89  and  _91
REMARK   39  A    between atoms: _91  and  _92
REMARK   40  A    between atoms: _91  and  _94
REMARK   41  A    between atoms: _94  and  _95
REMARK   42  A    between atoms: _100  and  _102
REMARK   43  A    between atoms: _102  and  _103
REMARK   44  A    between atoms: _102  and  _105
REMARK   45  A    between atoms: _105  and  _106
REMARK   46  A    between atoms: _106  and  _107
REMARK   47  A    between atoms: _107  and  _108
REMARK   48  A    between atoms: _118  and  _119
REMARK   49  A    between atoms: _124  and  _126
REMARK   50  A    between atoms: _126  and  _127
REMARK   51  A    between atoms: _126  and  _129
REMARK   52  A    between atoms: _129  and  _130
REMARK   53  A    between atoms: _135  and  _136
REMARK   54  A    between atoms: _138  and  _140
REMARK   55  A    between atoms: _140  and  _141
REMARK   56  A    between atoms: _140  and  _143
REMARK   57  A    between atoms: _143  and  _144
REMARK   58  A    between atoms: _149  and  _150
REMARK   59  A    between atoms: _152  and  _154
REMARK   60  A    between atoms: _154  and  _155
REMARK   61  A    between atoms: _154  and  _157
REMARK   62  A    between atoms: _160  and  _162
REMARK   63  A    between atoms: _162  and  _163
REMARK   64  A    between atoms: _162  and  _165
REMARK   65  A    between atoms: _165  and  _166
REMARK   66  A    between atoms: _172  and  _173
REMARK   67  A    between atoms: _178  and  _180
REMARK   68  A    between atoms: _180  and  _181
REMARK   69  A    between atoms: _180  and  _183
REMARK   70  A    between atoms: _183  and  _184
REMARK   71  A    between atoms: _186  and  _188
REMARK   72  A    between atoms: _188  and  _189
REMARK   73  A    between atoms: _188  and  _191
REMARK   74  A    between atoms: _191  and  _192
REMARK   75  A    between atoms: _197  and  _198
REMARK   76  A    between atoms: _200  and  _202
REMARK   77  A    between atoms: _202  and  _203
REMARK   78  A    between atoms: _202  and  _205
REMARK   79  A    between atoms: _205  and  _206
REMARK   80  A    between atoms: _211  and  _213
REMARK   81  A    between atoms: _213  and  _214
REMARK   82  A    between atoms: _213  and  _216
REMARK   83  A    between atoms: _216  and  _217
REMARK   84  A    between atoms: _222  and  _224
REMARK   85  A    between atoms: _224  and  _225
REMARK   86  A    between atoms: _224  and  _227
REMARK   87  A    between atoms: _227  and  _228
REMARK   88  A    between atoms: _228  and  _229
REMARK   89  A    between atoms: _231  and  _233
REMARK   90  A    between atoms: _233  and  _234
REMARK   91  A    between atoms: _233  and  _236
REMARK   92  A    between atoms: _236  and  _237
REMARK   93  A    between atoms: _242  and  _243
REMARK   94  A    between atoms: _245  and  _247
REMARK   95  A    between atoms: _247  and  _248
REMARK   96  A    between atoms: _247  and  _250
REMARK   97  A    between atoms: _250  and  _251
REMARK   98  A    between atoms: _254  and  _256
REMARK   99  A    between atoms: _256  and  _257
REMARK  100  A    between atoms: _256  and  _259
REMARK  101  A    between atoms: _259  and  _260
REMARK  102  A    between atoms: _260  and  _477
REMARK  103  A    between atoms: _261  and  _263
REMARK  104  A    between atoms: _263  and  _264
REMARK  105  A    between atoms: _263  and  _266
REMARK  106  A    between atoms: _266  and  _267
REMARK  107  A    between atoms: _270  and  _272
REMARK  108  A    between atoms: _272  and  _273
REMARK  109  A    between atoms: _272  and  _275
REMARK  110  A    between atoms: _275  and  _276
REMARK  111  A    between atoms: _281  and  _282
REMARK  112  A    between atoms: _284  and  _286
REMARK  113  A    between atoms: _286  and  _287
REMARK  114  A    between atoms: _286  and  _289
REMARK  115  A    between atoms: _289  and  _290
REMARK  116  A    between atoms: _295  and  _296
REMARK  117  A    between atoms: _298  and  _300
REMARK  118  A    between atoms: _300  and  _301
REMARK  119  A    between atoms: _300  and  _303
REMARK  120  A    between atoms: _303  and  _304
REMARK  121  A    between atoms: _304  and  _305
REMARK  122  A    between atoms: _308  and  _310
REMARK  123  A    between atoms: _310  and  _311
REMARK  124  A    between atoms: _310  and  _313
REMARK  125  A    between atoms: _313  and  _314
REMARK  126  A    between atoms: _319  and  _320
REMARK  127  A    between atoms: _322  and  _324
REMARK  128  A    between atoms: _324  and  _325
REMARK  129  A    between atoms: _324  and  _327
REMARK  130  A    between atoms: _327  and  _328
REMARK  131  A    between atoms: _333  and  _335
REMARK  132  A    between atoms: _335  and  _336
REMARK  133  A    between atoms: _335  and  _338
REMARK  134  A    between atoms: _338  and  _339
REMARK  135  A    between atoms: _342  and  _344
REMARK  136  A    between atoms: _344  and  _345
REMARK  137  A    between atoms: _344  and  _347
REMARK  138  A    between atoms: _347  and  _348
REMARK  139  A    between atoms: _353  and  _355
REMARK  140  A    between atoms: _355  and  _356
REMARK  141  A    between atoms: _355  and  _358
REMARK  142  A    between atoms: _358  and  _359
REMARK  143  A    between atoms: _369  and  _371
REMARK  144  A    between atoms: _371  and  _372
REMARK  145  A    between atoms: _371  and  _374
REMARK  146  A    between atoms: _374  and  _375
REMARK  147  A    between atoms: _381  and  _383
REMARK  148  A    between atoms: _383  and  _384
REMARK  149  A    between atoms: _383  and  _386
REMARK  150  A    between atoms: _386  and  _387
REMARK  151  A    between atoms: _390  and  _392
REMARK  152  A    between atoms: _392  and  _393
REMARK  153  A    between atoms: _392  and  _395
REMARK  154  A    between atoms: _395  and  _396
REMARK  155  A    between atoms: _399  and  _401
REMARK  156  A    between atoms: _401  and  _402
REMARK  157  A    between atoms: _401  and  _404
REMARK  158  A    between atoms: _404  and  _405
REMARK  159  A    between atoms: _405  and  _406
REMARK  160  A    between atoms: _406  and  _407
REMARK  161  A    between atoms: _416  and  _418
REMARK  162  A    between atoms: _418  and  _419
REMARK  163  A    between atoms: _418  and  _421
REMARK  164  A    between atoms: _421  and  _422
REMARK  165  A    between atoms: _427  and  _429
REMARK  166  A    between atoms: _429  and  _430
REMARK  167  A    between atoms: _429  and  _432
REMARK  168  A    between atoms: _432  and  _433
REMARK  169  A    between atoms: _433  and  _434
REMARK  170  A    between atoms: _434  and  _435
REMARK  171  A    between atoms: _444  and  _446
REMARK  172  A    between atoms: _446  and  _447
REMARK  173  A    between atoms: _450  and  _452
REMARK  174  A    between atoms: _452  and  _453
REMARK  175  A    between atoms: _455  and  _457
REMARK  176  A    between atoms: _457  and  _458
REMARK  177  A    between atoms: _457  and  _460
REMARK  178  A    between atoms: _460  and  _461
REMARK  179  A    between atoms: _471  and  _473
REMARK  180  A    between atoms: _473  and  _474
REMARK  181  A    between atoms: _473  and  _476
REMARK  182  A    between atoms: _476  and  _477
REMARK  183  A    between atoms: _478  and  _480
REMARK  184  A    between atoms: _480  and  _481
REMARK  185  A    between atoms: _484  and  _486
REMARK  186  A    between atoms: _486  and  _487
REMARK  187  A    between atoms: _486  and  _489
REMARK  188  A    between atoms: _489  and  _490
REMARK  189  A    between atoms: _493  and  _495
REMARK  190  A    between atoms: _495  and  _496
REMARK  191  A    between atoms: _495  and  _498
REMARK  192  A    between atoms: _498  and  _499
REMARK  193  A    between atoms: _504  and  _505
REMARK  194  A    between atoms: _507  and  _509
REMARK  195  A    between atoms: _509  and  _510
REMARK  196  A    between atoms: _509  and  _512
REMARK  197  A    between atoms: _512  and  _513
REMARK  198  A    between atoms: _515  and  _517
REMARK  199  A    between atoms: _517  and  _518
REMARK  200  A    between atoms: _517  and  _520
REMARK  201  A    between atoms: _520  and  _521
REMARK  202  A    between atoms: _527  and  _529
REMARK  203  A    between atoms: _529  and  _530
REMARK  204  A    between atoms: _529  and  _532
REMARK  205  A    between atoms: _532  and  _533
REMARK  206  A    between atoms: _536  and  _538
REMARK  207  A    between atoms: _538  and  _539
REMARK  208  A    between atoms: _538  and  _541
REMARK  209  A    between atoms: _541  and  _542
REMARK  210  A    between atoms: _544  and  _546
REMARK  211  A    between atoms: _546  and  _547
REMARK  212  A    between atoms: _546  and  _549
REMARK  213  A    between atoms: _549  and  _550
REMARK  214  A    between atoms: _555  and  _557
REMARK  215  A    between atoms: _557  and  _558
REMARK  216  A    between atoms: _557  and  _560
REMARK  217  A    between atoms: _560  and  _561
REMARK  218  A    between atoms: _566  and  _568
REMARK  219  A    between atoms: _568  and  _569
REMARK  220  A    between atoms: _568  and  _571
REMARK  221  A    between atoms: _571  and  _572
REMARK  222  A    between atoms: _575  and  _577
REMARK  223  A    between atoms: _577  and  _578
REMARK  224  A    between atoms: _581  and  _583
REMARK  225  A    between atoms: _583  and  _584
REMARK  226  A    between atoms: _583  and  _586
REMARK  227  A    between atoms: _586  and  _587
REMARK  228  A    between atoms: _592  and  _593
REMARK  229  A    between atoms: _595  and  _597
REMARK  230  A    between atoms: _597  and  _598
REMARK  231  A    between atoms: _597  and  _600
REMARK  232  A    between atoms: _600  and  _601
REMARK  233  A    between atoms: _606  and  _607
REMARK  234  A    between atoms: _609  and  _611
REMARK  235  A    between atoms: _611  and  _612
REMARK  236  A    between atoms: _611  and  _614
REMARK  237  A    between atoms: _617  and  _619
REMARK  238  A    between atoms: _619  and  _620
REMARK  239  A    between atoms: _619  and  _622
REMARK  240  A    between atoms: _622  and  _623
REMARK  241  A    between atoms: _628  and  _630
REMARK  242  A    between atoms: _630  and  _631
REMARK  243  A    between atoms: _634  and  _636
REMARK  244  A    between atoms: _636  and  _637
REMARK  245  A    between atoms: _636  and  _639
REMARK  246  A    between atoms: _639  and  _640
REMARK  247  A    between atoms: _640  and  _641
REMARK  248  A    between atoms: _641  and  _642
REMARK  249  A    between atoms: _651  and  _653
REMARK  250  A    between atoms: _653  and  _654
REMARK  251  A    between atoms: _653  and  _656
REMARK  252  A    between atoms: _656  and  _657
REMARK  253  A    between atoms: _660  and  _662
REMARK  254  A    between atoms: _662  and  _663
REMARK  255  A    between atoms: _662  and  _665
REMARK  256  A    between atoms: _665  and  _666
REMARK  257  A    between atoms: _669  and  _671
REMARK  258  A    between atoms: _671  and  _672
REMARK  259  A    between atoms: _671  and  _674
REMARK  260  A    between atoms: _674  and  _675
REMARK                            x       y       z     vdW  Elec       q    Type
REMARK                         _______ _______ _______ _____ _____    ______ ____
ROOT
ATOM      1  O   HOH     1      -8.183  13.321  16.406  0.00  0.00    +0.000 OA
ENDROOT
TORSDOF 0
REMARK  Name = ../refined-set-2016/1b32/1b32_pocket.pdb
REMARK  260 active torsions:
REMARK  status: ('A' for Active; 'I' for Inactive)
REMARK    1  A    between atoms: _1  and  _3
REMARK    2  A    between atoms: _3  and  _4
REMARK    3  A    between atoms: _3  and  _6
REMARK    4  A    between atoms: _6  and  _7
REMARK    5  A    between atoms: _12  and  _14
REMARK    6  A    between atoms: _14  and  _15
REMARK    7  A    between atoms: _14  and  _17
REMARK    8  A    between atoms: _17  and  _18
REMARK    9  A    between atoms: _20  and  _22
REMARK   10  A    between atoms: _22  and  _23
REMARK   11  A    between atoms: _22  and  _25
REMARK   12  A    between atoms: _25  and  _26
REMARK   13  A    between atoms: _26  and  _27
REMARK   14  A    between atoms: _32  and  _34
REMARK   15  A    between atoms: _34  and  _35
REMARK   16  A    between atoms: _34  and  _37
REMARK   17  A    between atoms: _37  and  _38
REMARK   18  A    between atoms: _41  and  _43
REMARK   19  A    between atoms: _43  and  _44
REMARK   20  A    between atoms: _43  and  _46
REMARK   21  A    between atoms: _46  and  _47
REMARK   22  A    between atoms: _47  and  _48
REMARK   23  A    between atoms: _51  and  _53
REMARK   24  A    between atoms: _53  and  _54
REMARK   25  A    between atoms: _56  and  _58
REMARK   26  A    between atoms: _58  and  _59
REMARK   27  A    between atoms: _58  and  _61
REMARK   28  A    between atoms: _65  and  _66
REMARK   29  A    between atoms: _71  and  _73
REMARK   30  A    between atoms: _73  and  _74
REMARK   31  A    between atoms: _73  and  _76
REMARK   32  A    between atoms: _76  and  _77
REMARK   33  A    between atoms: _77  and  _78
REMARK   34  A    between atoms: _81  and  _83
REMARK   35  A    between atoms: _83  and  _84
REMARK   36  A    between atoms: _83  and  _86
REMARK   37  A    between atoms: _86  and  _87
REMARK   38  A    between atoms: _89  and  _91
REMARK   39  A    between atoms: _91  and  _92
REMARK   40  A    between atoms: _91  and  _94
REMARK   41  A    between atoms: _94  and  _95
REMARK   42  A    between atoms: _100  and  _102
REMARK   43  A    between atoms: _102  and  _103
REMARK   44  A    between atoms: _102  and  _105
REMARK   45  A    between atoms: _105  and  _106
REMARK   46  A    between atoms: _106  and  _107
REMARK   47  A    between atoms: _107  and  _108
REMARK   48  A    between atoms: _118  and  _119
REMARK   49  A    between atoms: _124  and  _126
REMARK   50  A    between atoms: _126  and  _127
REMARK   51  A    between atoms: _126  and  _129
REMARK   52  A    between atoms: _129  and  _130
REMARK   53  A    between atoms: _135  and  _136
REMARK   54  A    between atoms: _138  and  _140
REMARK   55  A    between atoms: _140  and  _141
REMARK   56  A    between atoms: _140  and  _143
REMARK   57  A    between atoms: _143  and  _144
REMARK   58  A    between atoms: _149  and  _150
REMARK   59  A    between atoms: _152  and  _154
REMARK   60  A    between atoms: _154  and  _155
REMARK   61  A    between atoms: _154  and  _157
REMARK   62  A    between atoms: _160  and  _162
REMARK   63  A    between atoms: _162  and  _163
REMARK   64  A    between atoms: _162  and  _165
REMARK   65  A    between atoms: _165  and  _166
REMARK   66  A    between atoms: _172  and  _173
REMARK   67  A    between atoms: _178  and  _180
REMARK   68  A    between atoms: _180  and  _181
REMARK   69  A    between atoms: _180  and  _183
REMARK   70  A    between atoms: _183  and  _184
REMARK   71  A    between atoms: _186  and  _188
REMARK   72  A    between atoms: _188  and  _189
REMARK   73  A    between atoms: _188  and  _191
REMARK   74  A    between atoms: _191  and  _192
REMARK   75  A    between atoms: _197  and  _198
REMARK   76  A    between atoms: _200  and  _202
REMARK   77  A    between atoms: _202  and  _203
REMARK   78  A    between atoms: _202  and  _205
REMARK   79  A    between atoms: _205  and  _206
REMARK   80  A    between atoms: _211  and  _213
REMARK   81  A    between atoms: _213  and  _214
REMARK   82  A    between atoms: _213  and  _216
REMARK   83  A    between atoms: _216  and  _217
REMARK   84  A    between atoms: _222  and  _224
REMARK   85  A    between atoms: _224  and  _225
REMARK   86  A    between atoms: _224  and  _227
REMARK   87  A    between atoms: _227  and  _228
REMARK   88  A    between atoms: _228  and  _229
REMARK   89  A    between atoms: _231  and  _233
REMARK   90  A    between atoms: _233  and  _234
REMARK   91  A    between atoms: _233  and  _236
REMARK   92  A    between atoms: _236  and  _237
REMARK   93  A    between atoms: _242  and  _243
REMARK   94  A    between atoms: _245  and  _247
REMARK   95  A    between atoms: _247  and  _248
REMARK   96  A    between atoms: _247  and  _250
REMARK   97  A    between atoms: _250  and  _251
REMARK   98  A    between atoms: _254  and  _256
REMARK   99  A    between atoms: _256  and  _257
REMARK  100  A    between atoms: _256  and  _259
REMARK  101  A    between atoms: _259  and  _260
REMARK  102  A    between atoms: _260  and  _477
REMARK  103  A    between atoms: _261  and  _263
REMARK  104  A    between atoms: _263  and  _264
REMARK  105  A    between atoms: _263  and  _266
REMARK  106  A    between atoms: _266  and  _267
REMARK  107  A    between atoms: _270  and  _272
REMARK  108  A    between atoms: _272  and  _273
REMARK  109  A    between atoms: _272  and  _275
REMARK  110  A    between atoms: _275  and  _276
REMARK  111  A    between atoms: _281  and  _282
REMARK  112  A    between atoms: _284  and  _286
REMARK  113  A    between atoms: _286  and  _287
REMARK  114  A    between atoms: _286  and  _289
REMARK  115  A    between atoms: _289  and  _290
REMARK  116  A    between atoms: _295  and  _296
REMARK  117  A    between atoms: _298  and  _300
REMARK  118  A    between atoms: _300  and  _301
REMARK  119  A    between atoms: _300  and  _303
REMARK  120  A    between atoms: _303  and  _304
REMARK  121  A    between atoms: _304  and  _305
REMARK  122  A    between atoms: _308  and  _310
REMARK  123  A    between atoms: _310  and  _311
REMARK  124  A    between atoms: _310  and  _313
REMARK  125  A    between atoms: _313  and  _314
REMARK  126  A    between atoms: _319  and  _320
REMARK  127  A    between atoms: _322  and  _324
REMARK  128  A    between atoms: _324  and  _325
REMARK  129  A    between atoms: _324  and  _327
REMARK  130  A    between atoms: _327  and  _328
REMARK  131  A    between atoms: _333  and  _335
REMARK  132  A    between atoms: _335  and  _336
REMARK  133  A    between atoms: _335  and  _338
REMARK  134  A    between atoms: _338  and  _339
REMARK  135  A    between atoms: _342  and  _344
REMARK  136  A    between atoms: _344  and  _345
REMARK  137  A    between atoms: _344  and  _347
REMARK  138  A    between atoms: _347  and  _348
REMARK  139  A    between atoms: _353  and  _355
REMARK  140  A    between atoms: _355  and  _356
REMARK  141  A    between atoms: _355  and  _358
REMARK  142  A    between atoms: _358  and  _359
REMARK  143  A    between atoms: _369  and  _371
REMARK  144  A    between atoms: _371  and  _372
REMARK  145  A    between atoms: _371  and  _374
REMARK  146  A    between atoms: _374  and  _375
REMARK  147  A    between atoms: _381  and  _383
REMARK  148  A    between atoms: _383  and  _384
REMARK  149  A    between atoms: _383  and  _386
REMARK  150  A    between atoms: _386  and  _387
REMARK  151  A    between atoms: _390  and  _392
REMARK  152  A    between atoms: _392  and  _393
REMARK  153  A    between atoms: _392  and  _395
REMARK  154  A    between atoms: _395  and  _396
REMARK  155  A    between atoms: _399  and  _401
REMARK  156  A    between atoms: _401  and  _402
REMARK  157  A    between atoms: _401  and  _404
REMARK  158  A    between atoms: _404  and  _405
REMARK  159  A    between atoms: _405  and  _406
REMARK  160  A    between atoms: _406  and  _407
REMARK  161  A    between atoms: _416  and  _418
REMARK  162  A    between atoms: _418  and  _419
REMARK  163  A    between atoms: _418  and  _421
REMARK  164  A    between atoms: _421  and  _422
REMARK  165  A    between atoms: _427  and  _429
REMARK  166  A    between atoms: _429  and  _430
REMARK  167  A    between atoms: _429  and  _432
REMARK  168  A    between atoms: _432  and  _433
REMARK  169  A    between atoms: _433  and  _434
REMARK  170  A    between atoms: _434  and  _435
REMARK  171  A    between atoms: _444  and  _446
REMARK  172  A    between atoms: _446  and  _447
REMARK  173  A    between atoms: _450  and  _452
REMARK  174  A    between atoms: _452  and  _453
REMARK  175  A    between atoms: _455  and  _457
REMARK  176  A    between atoms: _457  and  _458
REMARK  177  A    between atoms: _457  and  _460
REMARK  178  A    between atoms: _460  and  _461
REMARK  179  A    between atoms: _471  and  _473
REMARK  180  A    between atoms: _473  and  _474
REMARK  181  A    between atoms: _473  and  _476
REMARK  182  A    between atoms: _476  and  _477
REMARK  183  A    between atoms: _478  and  _480
REMARK  184  A    between atoms: _480  and  _481
REMARK  185  A    between atoms: _484  and  _486
REMARK  186  A    between atoms: _486  and  _487
REMARK  187  A    between atoms: _486  and  _489
REMARK  188  A    between atoms: _489  and  _490
REMARK  189  A    between atoms: _493  and  _495
REMARK  190  A    between atoms: _495  and  _496
REMARK  191  A    between atoms: _495  and  _498
REMARK  192  A    between atoms: _498  and  _499
REMARK  193  A    between atoms: _504  and  _505
REMARK  194  A    between atoms: _507  and  _509
REMARK  195  A    between atoms: _509  and  _510
REMARK  196  A    between atoms: _509  and  _512
REMARK  197  A    between atoms: _512  and  _513
REMARK  198  A    between atoms: _515  and  _517
REMARK  199  A    between atoms: _517  and  _518
REMARK  200  A    between atoms: _517  and  _520
REMARK  201  A    between atoms: _520  and  _521
REMARK  202  A    between atoms: _527  and  _529
REMARK  203  A    between atoms: _529  and  _530
REMARK  204  A    between atoms: _529  and  _532
REMARK  205  A    between atoms: _532  and  _533
REMARK  206  A    between atoms: _536  and  _538
REMARK  207  A    between atoms: _538  and  _539
REMARK  208  A    between atoms: _538  and  _541
REMARK  209  A    between atoms: _541  and  _542
REMARK  210  A    between atoms: _544  and  _546
REMARK  211  A    between atoms: _546  and  _547
REMARK  212  A    between atoms: _546  and  _549
REMARK  213  A    between atoms: _549  and  _550
REMARK  214  A    between atoms: _555  and  _557
REMARK  215  A    between atoms: _557  and  _558
REMARK  216  A    between atoms: _557  and  _560
REMARK  217  A    between atoms: _560  and  _561
REMARK  218  A    between atoms: _566  and  _568
REMARK  219  A    between atoms: _568  and  _569
REMARK  220  A    between atoms: _568  and  _571
REMARK  221  A    between atoms: _571  and  _572
REMARK  222  A    between atoms: _575  and  _577
REMARK  223  A    between atoms: _577  and  _578
REMARK  224  A    between atoms: _581  and  _583
REMARK  225  A    between atoms: _583  and  _584
REMARK  226  A    between atoms: _583  and  _586
REMARK  227  A    between atoms: _586  and  _587
REMARK  228  A    between atoms: _592  and  _593
REMARK  229  A    between atoms: _595  and  _597
REMARK  230  A    between atoms: _597  and  _598
REMARK  231  A    between atoms: _597  and  _600
REMARK  232  A    between atoms: _600  and  _601
REMARK  233  A    between atoms: _606  and  _607
REMARK  234  A    between atoms: _609  and  _611
REMARK  235  A    between atoms: _611  and  _612
REMARK  236  A    between atoms: _611  and  _614
REMARK  237  A    between atoms: _617  and  _619
REMARK  238  A    between atoms: _619  and  _620
REMARK  239  A    between atoms: _619  and  _622
REMARK  240  A    between atoms: _622  and  _623
REMARK  241  A    between atoms: _628  and  _630
REMARK  242  A    between atoms: _630  and  _631
REMARK  243  A    between atoms: _634  and  _636
REMARK  244  A    between atoms: _636  and  _637
REMARK  245  A    between atoms: _636  and  _639
REMARK  246  A    between atoms: _639  and  _640
REMARK  247  A    between atoms: _640  and  _641
REMARK  248  A    between atoms: _641  and  _642
REMARK  249  A    between atoms: _651  and  _653
REMARK  250  A    between atoms: _653  and  _654
REMARK  251  A    between atoms: _653  and  _656
REMARK  252  A    between atoms: _656  and  _657
REMARK  253  A    between atoms: _660  and  _662
REMARK  254  A    between atoms: _662  and  _663
REMARK  255  A    between atoms: _662  and  _665
REMARK  256  A    between atoms: _665  and  _666
REMARK  257  A    between atoms: _669  and  _671
REMARK  258  A    between atoms: _671  and  _672
REMARK  259  A    between atoms: _671  and  _674
REMARK  260  A    between atoms: _674  and  _675
REMARK                            x       y       z     vdW  Elec       q    Type
REMARK                         _______ _______ _______ _____ _____    ______ ____
ROOT
ATOM      1  O   HOH     1      -5.989  14.490  13.648  0.00  0.00    +0.000 OA
ENDROOT
TORSDOF 0
REMARK  Name = ../refined-set-2016/1b32/1b32_pocket.pdb
REMARK  260 active torsions:
REMARK  status: ('A' for Active; 'I' for Inactive)
REMARK    1  A    between atoms: _1  and  _3
REMARK    2  A    between atoms: _3  and  _4
REMARK    3  A    between atoms: _3  and  _6
REMARK    4  A    between atoms: _6  and  _7
REMARK    5  A    between atoms: _12  and  _14
REMARK    6  A    between atoms: _14  and  _15
REMARK    7  A    between atoms: _14  and  _17
REMARK    8  A    between atoms: _17  and  _18
REMARK    9  A    between atoms: _20  and  _22
REMARK   10  A    between atoms: _22  and  _23
REMARK   11  A    between atoms: _22  and  _25
REMARK   12  A    between atoms: _25  and  _26
REMARK   13  A    between atoms: _26  and  _27
REMARK   14  A    between atoms: _32  and  _34
REMARK   15  A    between atoms: _34  and  _35
REMARK   16  A    between atoms: _34  and  _37
REMARK   17  A    between atoms: _37  and  _38
REMARK   18  A    between atoms: _41  and  _43
REMARK   19  A    between atoms: _43  and  _44
REMARK   20  A    between atoms: _43  and  _46
REMARK   21  A    between atoms: _46  and  _47
REMARK   22  A    between atoms: _47  and  _48
REMARK   23  A    between atoms: _51  and  _53
REMARK   24  A    between atoms: _53  and  _54
REMARK   25  A    between atoms: _56  and  _58
REMARK   26  A    between atoms: _58  and  _59
REMARK   27  A    between atoms: _58  and  _61
REMARK   28  A    between atoms: _65  and  _66
REMARK   29  A    between atoms: _71  and  _73
REMARK   30  A    between atoms: _73  and  _74
REMARK   31  A    between atoms: _73  and  _76
REMARK   32  A    between atoms: _76  and  _77
REMARK   33  A    between atoms: _77  and  _78
REMARK   34  A    between atoms: _81  and  _83
REMARK   35  A    between atoms: _83  and  _84
REMARK   36  A    between atoms: _83  and  _86
REMARK   37  A    between atoms: _86  and  _87
REMARK   38  A    between atoms: _89  and  _91
REMARK   39  A    between atoms: _91  and  _92
REMARK   40  A    between atoms: _91  and  _94
REMARK   41  A    between atoms: _94  and  _95
REMARK   42  A    between atoms: _100  and  _102
REMARK   43  A    between atoms: _102  and  _103
REMARK   44  A    between atoms: _102  and  _105
REMARK   45  A    between atoms: _105  and  _106
REMARK   46  A    between atoms: _106  and  _107
REMARK   47  A    between atoms: _107  and  _108
REMARK   48  A    between atoms: _118  and  _119
REMARK   49  A    between atoms: _124  and  _126
REMARK   50  A    between atoms: _126  and  _127
REMARK   51  A    between atoms: _126  and  _129
REMARK   52  A    between atoms: _129  and  _130
REMARK   53  A    between atoms: _135  and  _136
REMARK   54  A    between atoms: _138  and  _140
REMARK   55  A    between atoms: _140  and  _141
REMARK   56  A    between atoms: _140  and  _143
REMARK   57  A    between atoms: _143  and  _144
REMARK   58  A    between atoms: _149  and  _150
REMARK   59  A    between atoms: _152  and  _154
REMARK   60  A    between atoms: _154  and  _155
REMARK   61  A    between atoms: _154  and  _157
REMARK   62  A    between atoms: _160  and  _162
REMARK   63  A    between atoms: _162  and  _163
REMARK   64  A    between atoms: _162  and  _165
REMARK   65  A    between atoms: _165  and  _166
REMARK   66  A    between atoms: _172  and  _173
REMARK   67  A    between atoms: _178  and  _180
REMARK   68  A    between atoms: _180  and  _181
REMARK   69  A    between atoms: _180  and  _183
REMARK   70  A    between atoms: _183  and  _184
REMARK   71  A    between atoms: _186  and  _188
REMARK   72  A    between atoms: _188  and  _189
REMARK   73  A    between atoms: _188  and  _191
REMARK   74  A    between atoms: _191  and  _192
REMARK   75  A    between atoms: _197  and  _198
REMARK   76  A    between atoms: _200  and  _202
REMARK   77  A    between atoms: _202  and  _203
REMARK   78  A    between atoms: _202  and  _205
REMARK   79  A    between atoms: _205  and  _206
REMARK   80  A    between atoms: _211  and  _213
REMARK   81  A    between atoms: _213  and  _214
REMARK   82  A    between atoms: _213  and  _216
REMARK   83  A    between atoms: _216  and  _217
REMARK   84  A    between atoms: _222  and  _224
REMARK   85  A    between atoms: _224  and  _225
REMARK   86  A    between atoms: _224  and  _227
REMARK   87  A    between atoms: _227  and  _228
REMARK   88  A    between atoms: _228  and  _229
REMARK   89  A    between atoms: _231  and  _233
REMARK   90  A    between atoms: _233  and  _234
REMARK   91  A    between atoms: _233  and  _236
REMARK   92  A    between atoms: _236  and  _237
REMARK   93  A    between atoms: _242  and  _243
REMARK   94  A    between atoms: _245  and  _247
REMARK   95  A    between atoms: _247  and  _248
REMARK   96  A    between atoms: _247  and  _250
REMARK   97  A    between atoms: _250  and  _251
REMARK   98  A    between atoms: _254  and  _256
REMARK   99  A    between atoms: _256  and  _257
REMARK  100  A    between atoms: _256  and  _259
REMARK  101  A    between atoms: _259  and  _260
REMARK  102  A    between atoms: _260  and  _477
REMARK  103  A    between atoms: _261  and  _263
REMARK  104  A    between atoms: _263  and  _264
REMARK  105  A    between atoms: _263  and  _266
REMARK  106  A    between atoms: _266  and  _267
REMARK  107  A    between atoms: _270  and  _272
REMARK  108  A    between atoms: _272  and  _273
REMARK  109  A    between atoms: _272  and  _275
REMARK  110  A    between atoms: _275  and  _276
REMARK  111  A    between atoms: _281  and  _282
REMARK  112  A    between atoms: _284  and  _286
REMARK  113  A    between atoms: _286  and  _287
REMARK  114  A    between atoms: _286  and  _289
REMARK  115  A    between atoms: _289  and  _290
REMARK  116  A    between atoms: _295  and  _296
REMARK  117  A    between atoms: _298  and  _300
REMARK  118  A    between atoms: _300  and  _301
REMARK  119  A    between atoms: _300  and  _303
REMARK  120  A    between atoms: _303  and  _304
REMARK  121  A    between atoms: _304  and  _305
REMARK  122  A    between atoms: _308  and  _310
REMARK  123  A    between atoms: _310  and  _311
REMARK  124  A    between atoms: _310  and  _313
REMARK  125  A    between atoms: _313  and  _314
REMARK  126  A    between atoms: _319  and  _320
REMARK  127  A    between atoms: _322  and  _324
REMARK  128  A    between atoms: _324  and  _325
REMARK  129  A    between atoms: _324  and  _327
REMARK  130  A    between atoms: _327  and  _328
REMARK  131  A    between atoms: _333  and  _335
REMARK  132  A    between atoms: _335  and  _336
REMARK  133  A    between atoms: _335  and  _338
REMARK  134  A    between atoms: _338  and  _339
REMARK  135  A    between atoms: _342  and  _344
REMARK  136  A    between atoms: _344  and  _345
REMARK  137  A    between atoms: _344  and  _347
REMARK  138  A    between atoms: _347  and  _348
REMARK  139  A    between atoms: _353  and  _355
REMARK  140  A    between atoms: _355  and  _356
REMARK  141  A    between atoms: _355  and  _358
REMARK  142  A    between atoms: _358  and  _359
REMARK  143  A    between atoms: _369  and  _371
REMARK  144  A    between atoms: _371  and  _372
REMARK  145  A    between atoms: _371  and  _374
REMARK  146  A    between atoms: _374  and  _375
REMARK  147  A    between atoms: _381  and  _383
REMARK  148  A    between atoms: _383  and  _384
REMARK  149  A    between atoms: _383  and  _386
REMARK  150  A    between atoms: _386  and  _387
REMARK  151  A    between atoms: _390  and  _392
REMARK  152  A    between atoms: _392  and  _393
REMARK  153  A    between atoms: _392  and  _395
REMARK  154  A    between atoms: _395  and  _396
REMARK  155  A    between atoms: _399  and  _401
REMARK  156  A    between atoms: _401  and  _402
REMARK  157  A    between atoms: _401  and  _404
REMARK  158  A    between atoms: _404  and  _405
REMARK  159  A    between atoms: _405  and  _406
REMARK  160  A    between atoms: _406  and  _407
REMARK  161  A    between atoms: _416  and  _418
REMARK  162  A    between atoms: _418  and  _419
REMARK  163  A    between atoms: _418  and  _421
REMARK  164  A    between atoms: _421  and  _422
REMARK  165  A    between atoms: _427  and  _429
REMARK  166  A    between atoms: _429  and  _430
REMARK  167  A    between atoms: _429  and  _432
REMARK  168  A    between atoms: _432  and  _433
REMARK  169  A    between atoms: _433  and  _434
REMARK  170  A    between atoms: _434  and  _435
REMARK  171  A    between atoms: _444  and  _446
REMARK  172  A    between atoms: _446  and  _447
REMARK  173  A    between atoms: _450  and  _452
REMARK  174  A    between atoms: _452  and  _453
REMARK  175  A    between atoms: _455  and  _457
REMARK  176  A    between atoms: _457  and  _458
REMARK  177  A    between atoms: _457  and  _460
REMARK  178  A    between atoms: _460  and  _461
REMARK  179  A    between atoms: _471  and  _473
REMARK  180  A    between atoms: _473  and  _474
REMARK  181  A    between atoms: _473  and  _476
REMARK  182  A    between atoms: _476  and  _477
REMARK  183  A    between atoms: _478  and  _480
REMARK  184  A    between atoms: _480  and  _481
REMARK  185  A    between atoms: _484  and  _486
REMARK  186  A    between atoms: _486  and  _487
REMARK  187  A    between atoms: _486  and  _489
REMARK  188  A    between atoms: _489  and  _490
REMARK  189  A    between atoms: _493  and  _495
REMARK  190  A    between atoms: _495  and  _496
REMARK  191  A    between atoms: _495  and  _498
REMARK  192  A    between atoms: _498  and  _499
REMARK  193  A    between atoms: _504  and  _505
REMARK  194  A    between atoms: _507  and  _509
REMARK  195  A    between atoms: _509  and  _510
REMARK  196  A    between atoms: _509  and  _512
REMARK  197  A    between atoms: _512  and  _513
REMARK  198  A    between atoms: _515  and  _517
REMARK  199  A    between atoms: _517  and  _518
REMARK  200  A    between atoms: _517  and  _520
REMARK  201  A    between atoms: _520  and  _521
REMARK  202  A    between atoms: _527  and  _529
REMARK  203  A    between atoms: _529  and  _530
REMARK  204  A    between atoms: _529  and  _532
REMARK  205  A    between atoms: _532  and  _533
REMARK  206  A    between atoms: _536  and  _538
REMARK  207  A    between atoms: _538  and  _539
REMARK  208  A    between atoms: _538  and  _541
REMARK  209  A    between atoms: _541  and  _542
REMARK  210  A    between atoms: _544  and  _546
REMARK  211  A    between atoms: _546  and  _547
REMARK  212  A    between atoms: _546  and  _549
REMARK  213  A    between atoms: _549  and  _550
REMARK  214  A    between atoms: _555  and  _557
REMARK  215  A    between atoms: _557  and  _558
REMARK  216  A    between atoms: _557  and  _560
REMARK  217  A    between atoms: _560  and  _561
REMARK  218  A    between atoms: _566  and  _568
REMARK  219  A    between atoms: _568  and  _569
REMARK  220  A    between atoms: _568  and  _571
REMARK  221  A    between atoms: _571  and  _572
REMARK  222  A    between atoms: _575  and  _577
REMARK  223  A    between atoms: _577  and  _578
REMARK  224  A    between atoms: _581  and  _583
REMARK  225  A    between atoms: _583  and  _584
REMARK  226  A    between atoms: _583  and  _586
REMARK  227  A    between atoms: _586  and  _587
REMARK  228  A    between atoms: _592  and  _593
REMARK  229  A    between atoms: _595  and  _597
REMARK  230  A    between atoms: _597  and  _598
REMARK  231  A    between atoms: _597  and  _600
REMARK  232  A    between atoms: _600  and  _601
REMARK  233  A    between atoms: _606  and  _607
REMARK  234  A    between atoms: _609  and  _611
REMARK  235  A    between atoms: _611  and  _612
REMARK  236  A    between atoms: _611  and  _614
REMARK  237  A    between atoms: _617  and  _619
REMARK  238  A    between atoms: _619  and  _620
REMARK  239  A    between atoms: _619  and  _622
REMARK  240  A    between atoms: _622  and  _623
REMARK  241  A    between atoms: _628  and  _630
REMARK  242  A    between atoms: _630  and  _631
REMARK  243  A    between atoms: _634  and  _636
REMARK  244  A    between atoms: _636  and  _637
REMARK  245  A    between atoms: _636  and  _639
REMARK  246  A    between atoms: _639  and  _640
REMARK  247  A    between atoms: _640  and  _641
REMARK  248  A    between atoms: _641  and  _642
REMARK  249  A    between atoms: _651  and  _653
REMARK  250  A    between atoms: _653  and  _654
REMARK  251  A    between atoms: _653  and  _656
REMARK  252  A    between atoms: _656  and  _657
REMARK  253  A    between atoms: _660  and  _662
REMARK  254  A    between atoms: _662  and  _663
REMARK  255  A    between atoms: _662  and  _665
REMARK  256  A    between atoms: _665  and  _666
REMARK  257  A    between atoms: _669  and  _671
REMARK  258  A    between atoms: _671  and  _672
REMARK  259  A    between atoms: _671  and  _674
REMARK  260  A    between atoms: _674  and  _675
REMARK                            x       y       z     vdW  Elec       q    Type
REMARK                         _______ _______ _______ _____ _____    ______ ____
ROOT
ATOM      1  O   HOH     1      -2.445  24.098  12.287  0.00  0.00    +0.000 OA
ENDROOT
TORSDOF 0
REMARK  Name = ../refined-set-2016/1b32/1b32_pocket.pdb
REMARK  260 active torsions:
REMARK  status: ('A' for Active; 'I' for Inactive)
REMARK    1  A    between atoms: _1  and  _3
REMARK    2  A    between atoms: _3  and  _4
REMARK    3  A    between atoms: _3  and  _6
REMARK    4  A    between atoms: _6  and  _7
REMARK    5  A    between atoms: _12  and  _14
REMARK    6  A    between atoms: _14  and  _15
REMARK    7  A    between atoms: _14  and  _17
REMARK    8  A    between atoms: _17  and  _18
REMARK    9  A    between atoms: _20  and  _22
REMARK   10  A    between atoms: _22  and  _23
REMARK   11  A    between atoms: _22  and  _25
REMARK   12  A    between atoms: _25  and  _26
REMARK   13  A    between atoms: _26  and  _27
REMARK   14  A    between atoms: _32  and  _34
REMARK   15  A    between atoms: _34  and  _35
REMARK   16  A    between atoms: _34  and  _37
REMARK   17  A    between atoms: _37  and  _38
REMARK   18  A    between atoms: _41  and  _43
REMARK   19  A    between atoms: _43  and  _44
REMARK   20  A    between atoms: _43  and  _46
REMARK   21  A    between atoms: _46  and  _47
REMARK   22  A    between atoms: _47  and  _48
REMARK   23  A    between atoms: _51  and  _53
REMARK   24  A    between atoms: _53  and  _54
REMARK   25  A    between atoms: _56  and  _58
REMARK   26  A    between atoms: _58  and  _59
REMARK   27  A    between atoms: _58  and  _61
REMARK   28  A    between atoms: _65  and  _66
REMARK   29  A    between atoms: _71  and  _73
REMARK   30  A    between atoms: _73  and  _74
REMARK   31  A    between atoms: _73  and  _76
REMARK   32  A    between atoms: _76  and  _77
REMARK   33  A    between atoms: _77  and  _78
REMARK   34  A    between atoms: _81  and  _83
REMARK   35  A    between atoms: _83  and  _84
REMARK   36  A    between atoms: _83  and  _86
REMARK   37  A    between atoms: _86  and  _87
REMARK   38  A    between atoms: _89  and  _91
REMARK   39  A    between atoms: _91  and  _92
REMARK   40  A    between atoms: _91  and  _94
REMARK   41  A    between atoms: _94  and  _95
REMARK   42  A    between atoms: _100  and  _102
REMARK   43  A    between atoms: _102  and  _103
REMARK   44  A    between atoms: _102  and  _105
REMARK   45  A    between atoms: _105  and  _106
REMARK   46  A    between atoms: _106  and  _107
REMARK   47  A    between atoms: _107  and  _108
REMARK   48  A    between atoms: _118  and  _119
REMARK   49  A    between atoms: _124  and  _126
REMARK   50  A    between atoms: _126  and  _127
REMARK   51  A    between atoms: _126  and  _129
REMARK   52  A    between atoms: _129  and  _130
REMARK   53  A    between atoms: _135  and  _136
REMARK   54  A    between atoms: _138  and  _140
REMARK   55  A    between atoms: _140  and  _141
REMARK   56  A    between atoms: _140  and  _143
REMARK   57  A    between atoms: _143  and  _144
REMARK   58  A    between atoms: _149  and  _150
REMARK   59  A    between atoms: _152  and  _154
REMARK   60  A    between atoms: _154  and  _155
REMARK   61  A    between atoms: _154  and  _157
REMARK   62  A    between atoms: _160  and  _162
REMARK   63  A    between atoms: _162  and  _163
REMARK   64  A    between atoms: _162  and  _165
REMARK   65  A    between atoms: _165  and  _166
REMARK   66  A    between atoms: _172  and  _173
REMARK   67  A    between atoms: _178  and  _180
REMARK   68  A    between atoms: _180  and  _181
REMARK   69  A    between atoms: _180  and  _183
REMARK   70  A    between atoms: _183  and  _184
REMARK   71  A    between atoms: _186  and  _188
REMARK   72  A    between atoms: _188  and  _189
REMARK   73  A    between atoms: _188  and  _191
REMARK   74  A    between atoms: _191  and  _192
REMARK   75  A    between atoms: _197  and  _198
REMARK   76  A    between atoms: _200  and  _202
REMARK   77  A    between atoms: _202  and  _203
REMARK   78  A    between atoms: _202  and  _205
REMARK   79  A    between atoms: _205  and  _206
REMARK   80  A    between atoms: _211  and  _213
REMARK   81  A    between atoms: _213  and  _214
REMARK   82  A    between atoms: _213  and  _216
REMARK   83  A    between atoms: _216  and  _217
REMARK   84  A    between atoms: _222  and  _224
REMARK   85  A    between atoms: _224  and  _225
REMARK   86  A    between atoms: _224  and  _227
REMARK   87  A    between atoms: _227  and  _228
REMARK   88  A    between atoms: _228  and  _229
REMARK   89  A    between atoms: _231  and  _233
REMARK   90  A    between atoms: _233  and  _234
REMARK   91  A    between atoms: _233  and  _236
REMARK   92  A    between atoms: _236  and  _237
REMARK   93  A    between atoms: _242  and  _243
REMARK   94  A    between atoms: _245  and  _247
REMARK   95  A    between atoms: _247  and  _248
REMARK   96  A    between atoms: _247  and  _250
REMARK   97  A    between atoms: _250  and  _251
REMARK   98  A    between atoms: _254  and  _256
REMARK   99  A    between atoms: _256  and  _257
REMARK  100  A    between atoms: _256  and  _259
REMARK  101  A    between atoms: _259  and  _260
REMARK  102  A    between atoms: _260  and  _477
REMARK  103  A    between atoms: _261  and  _263
REMARK  104  A    between atoms: _263  and  _264
REMARK  105  A    between atoms: _263  and  _266
REMARK  106  A    between atoms: _266  and  _267
REMARK  107  A    between atoms: _270  and  _272
REMARK  108  A    between atoms: _272  and  _273
REMARK  109  A    between atoms: _272  and  _275
REMARK  110  A    between atoms: _275  and  _276
REMARK  111  A    between atoms: _281  and  _282
REMARK  112  A    between atoms: _284  and  _286
REMARK  113  A    between atoms: _286  and  _287
REMARK  114  A    between atoms: _286  and  _289
REMARK  115  A    between atoms: _289  and  _290
REMARK  116  A    between atoms: _295  and  _296
REMARK  117  A    between atoms: _298  and  _300
REMARK  118  A    between atoms: _300  and  _301
REMARK  119  A    between atoms: _300  and  _303
REMARK  120  A    between atoms: _303  and  _304
REMARK  121  A    between atoms: _304  and  _305
REMARK  122  A    between atoms: _308  and  _310
REMARK  123  A    between atoms: _310  and  _311
REMARK  124  A    between atoms: _310  and  _313
REMARK  125  A    between atoms: _313  and  _314
REMARK  126  A    between atoms: _319  and  _320
REMARK  127  A    between atoms: _322  and  _324
REMARK  128  A    between atoms: _324  and  _325
REMARK  129  A    between atoms: _324  and  _327
REMARK  130  A    between atoms: _327  and  _328
REMARK  131  A    between atoms: _333  and  _335
REMARK  132  A    between atoms: _335  and  _336
REMARK  133  A    between atoms: _335  and  _338
REMARK  134  A    between atoms: _338  and  _339
REMARK  135  A    between atoms: _342  and  _344
REMARK  136  A    between atoms: _344  and  _345
REMARK  137  A    between atoms: _344  and  _347
REMARK  138  A    between atoms: _347  and  _348
REMARK  139  A    between atoms: _353  and  _355
REMARK  140  A    between atoms: _355  and  _356
REMARK  141  A    between atoms: _355  and  _358
REMARK  142  A    between atoms: _358  and  _359
REMARK  143  A    between atoms: _369  and  _371
REMARK  144  A    between atoms: _371  and  _372
REMARK  145  A    between atoms: _371  and  _374
REMARK  146  A    between atoms: _374  and  _375
REMARK  147  A    between atoms: _381  and  _383
REMARK  148  A    between atoms: _383  and  _384
REMARK  149  A    between atoms: _383  and  _386
REMARK  150  A    between atoms: _386  and  _387
REMARK  151  A    between atoms: _390  and  _392
REMARK  152  A    between atoms: _392  and  _393
REMARK  153  A    between atoms: _392  and  _395
REMARK  154  A    between atoms: _395  and  _396
REMARK  155  A    between atoms: _399  and  _401
REMARK  156  A    between atoms: _401  and  _402
REMARK  157  A    between atoms: _401  and  _404
REMARK  158  A    between atoms: _404  and  _405
REMARK  159  A    between atoms: _405  and  _406
REMARK  160  A    between atoms: _406  and  _407
REMARK  161  A    between atoms: _416  and  _418
REMARK  162  A    between atoms: _418  and  _419
REMARK  163  A    between atoms: _418  and  _421
REMARK  164  A    between atoms: _421  and  _422
REMARK  165  A    between atoms: _427  and  _429
REMARK  166  A    between atoms: _429  and  _430
REMARK  167  A    between atoms: _429  and  _432
REMARK  168  A    between atoms: _432  and  _433
REMARK  169  A    between atoms: _433  and  _434
REMARK  170  A    between atoms: _434  and  _435
REMARK  171  A    between atoms: _444  and  _446
REMARK  172  A    between atoms: _446  and  _447
REMARK  173  A    between atoms: _450  and  _452
REMARK  174  A    between atoms: _452  and  _453
REMARK  175  A    between atoms: _455  and  _457
REMARK  176  A    between atoms: _457  and  _458
REMARK  177  A    between atoms: _457  and  _460
REMARK  178  A    between atoms: _460  and  _461
REMARK  179  A    between atoms: _471  and  _473
REMARK  180  A    between atoms: _473  and  _474
REMARK  181  A    between atoms: _473  and  _476
REMARK  182  A    between atoms: _476  and  _477
REMARK  183  A    between atoms: _478  and  _480
REMARK  184  A    between atoms: _480  and  _481
REMARK  185  A    between atoms: _484  and  _486
REMARK  186  A    between atoms: _486  and  _487
REMARK  187  A    between atoms: _486  and  _489
REMARK  188  A    between atoms: _489  and  _490
REMARK  189  A    between atoms: _493  and  _495
REMARK  190  A    between atoms: _495  and  _496
REMARK  191  A    between atoms: _495  and  _498
REMARK  192  A    between atoms: _498  and  _499
REMARK  193  A    between atoms: _504  and  _505
REMARK  194  A    between atoms: _507  and  _509
REMARK  195  A    between atoms: _509  and  _510
REMARK  196  A    between atoms: _509  and  _512
REMARK  197  A    between atoms: _512  and  _513
REMARK  198  A    between atoms: _515  and  _517
REMARK  199  A    between atoms: _517  and  _518
REMARK  200  A    between atoms: _517  and  _520
REMARK  201  A    between atoms: _520  and  _521
REMARK  202  A    between atoms: _527  and  _529
REMARK  203  A    between atoms: _529  and  _530
REMARK  204  A    between atoms: _529  and  _532
REMARK  205  A    between atoms: _532  and  _533
REMARK  206  A    between atoms: _536  and  _538
REMARK  207  A    between atoms: _538  and  _539
REMARK  208  A    between atoms: _538  and  _541
REMARK  209  A    between atoms: _541  and  _542
REMARK  210  A    between atoms: _544  and  _546
REMARK  211  A    between atoms: _546  and  _547
REMARK  212  A    between atoms: _546  and  _549
REMARK  213  A    between atoms: _549  and  _550
REMARK  214  A    between atoms: _555  and  _557
REMARK  215  A    between atoms: _557  and  _558
REMARK  216  A    between atoms: _557  and  _560
REMARK  217  A    between atoms: _560  and  _561
REMARK  218  A    between atoms: _566  and  _568
REMARK  219  A    between atoms: _568  and  _569
REMARK  220  A    between atoms: _568  and  _571
REMARK  221  A    between atoms: _571  and  _572
REMARK  222  A    between atoms: _575  and  _577
REMARK  223  A    between atoms: _577  and  _578
REMARK  224  A    between atoms: _581  and  _583
REMARK  225  A    between atoms: _583  and  _584
REMARK  226  A    between atoms: _583  and  _586
REMARK  227  A    between atoms: _586  and  _587
REMARK  228  A    between atoms: _592  and  _593
REMARK  229  A    between atoms: _595  and  _597
REMARK  230  A    between atoms: _597  and  _598
REMARK  231  A    between atoms: _597  and  _600
REMARK  232  A    between atoms: _600  and  _601
REMARK  233  A    between atoms: _606  and  _607
REMARK  234  A    between atoms: _609  and  _611
REMARK  235  A    between atoms: _611  and  _612
REMARK  236  A    between atoms: _611  and  _614
REMARK  237  A    between atoms: _617  and  _619
REMARK  238  A    between atoms: _619  and  _620
REMARK  239  A    between atoms: _619  and  _622
REMARK  240  A    between atoms: _622  and  _623
REMARK  241  A    between atoms: _628  and  _630
REMARK  242  A    between atoms: _630  and  _631
REMARK  243  A    between atoms: _634  and  _636
REMARK  244  A    between atoms: _636  and  _637
REMARK  245  A    between atoms: _636  and  _639
REMARK  246  A    between atoms: _639  and  _640
REMARK  247  A    between atoms: _640  and  _641
REMARK  248  A    between atoms: _641  and  _642
REMARK  249  A    between atoms: _651  and  _653
REMARK  250  A    between atoms: _653  and  _654
REMARK  251  A    between atoms: _653  and  _656
REMARK  252  A    between atoms: _656  and  _657
REMARK  253  A    between atoms: _660  and  _662
REMARK  254  A    between atoms: _662  and  _663
REMARK  255  A    between atoms: _662  and  _665
REMARK  256  A    between atoms: _665  and  _666
REMARK  257  A    between atoms: _669  and  _671
REMARK  258  A    between atoms: _671  and  _672
REMARK  259  A    between atoms: _671  and  _674
REMARK  260  A    between atoms: _674  and  _675
REMARK                            x       y       z     vdW  Elec       q    Type
REMARK                         _______ _______ _______ _____ _____    ______ ____
ROOT
ATOM      1  O   HOH     1      -8.322  15.792  17.121  0.00  0.00    +0.000 OA
ENDROOT
TORSDOF 0
REMARK  Name = ../refined-set-2016/1b32/1b32_pocket.pdb
REMARK  260 active torsions:
REMARK  status: ('A' for Active; 'I' for Inactive)
REMARK    1  A    between atoms: _1  and  _3
REMARK    2  A    between atoms: _3  and  _4
REMARK    3  A    between atoms: _3  and  _6
REMARK    4  A    between atoms: _6  and  _7
REMARK    5  A    between atoms: _12  and  _14
REMARK    6  A    between atoms: _14  and  _15
REMARK    7  A    between atoms: _14  and  _17
REMARK    8  A    between atoms: _17  and  _18
REMARK    9  A    between atoms: _20  and  _22
REMARK   10  A    between atoms: _22  and  _23
REMARK   11  A    between atoms: _22  and  _25
REMARK   12  A    between atoms: _25  and  _26
REMARK   13  A    between atoms: _26  and  _27
REMARK   14  A    between atoms: _32  and  _34
REMARK   15  A    between atoms: _34  and  _35
REMARK   16  A    between atoms: _34  and  _37
REMARK   17  A    between atoms: _37  and  _38
REMARK   18  A    between atoms: _41  and  _43
REMARK   19  A    between atoms: _43  and  _44
REMARK   20  A    between atoms: _43  and  _46
REMARK   21  A    between atoms: _46  and  _47
REMARK   22  A    between atoms: _47  and  _48
REMARK   23  A    between atoms: _51  and  _53
REMARK   24  A    between atoms: _53  and  _54
REMARK   25  A    between atoms: _56  and  _58
REMARK   26  A    between atoms: _58  and  _59
REMARK   27  A    between atoms: _58  and  _61
REMARK   28  A    between atoms: _65  and  _66
REMARK   29  A    between atoms: _71  and  _73
REMARK   30  A    between atoms: _73  and  _74
REMARK   31  A    between atoms: _73  and  _76
REMARK   32  A    between atoms: _76  and  _77
REMARK   33  A    between atoms: _77  and  _78
REMARK   34  A    between atoms: _81  and  _83
REMARK   35  A    between atoms: _83  and  _84
REMARK   36  A    between atoms: _83  and  _86
REMARK   37  A    between atoms: _86  and  _87
REMARK   38  A    between atoms: _89  and  _91
REMARK   39  A    between atoms: _91  and  _92
REMARK   40  A    between atoms: _91  and  _94
REMARK   41  A    between atoms: _94  and  _95
REMARK   42  A    between atoms: _100  and  _102
REMARK   43  A    between atoms: _102  and  _103
REMARK   44  A    between atoms: _102  and  _105
REMARK   45  A    between atoms: _105  and  _106
REMARK   46  A    between atoms: _106  and  _107
REMARK   47  A    between atoms: _107  and  _108
REMARK   48  A    between atoms: _118  and  _119
REMARK   49  A    between atoms: _124  and  _126
REMARK   50  A    between atoms: _126  and  _127
REMARK   51  A    between atoms: _126  and  _129
REMARK   52  A    between atoms: _129  and  _130
REMARK   53  A    between atoms: _135  and  _136
REMARK   54  A    between atoms: _138  and  _140
REMARK   55  A    between atoms: _140  and  _141
REMARK   56  A    between atoms: _140  and  _143
REMARK   57  A    between atoms: _143  and  _144
REMARK   58  A    between atoms: _149  and  _150
REMARK   59  A    between atoms: _152  and  _154
REMARK   60  A    between atoms: _154  and  _155
REMARK   61  A    between atoms: _154  and  _157
REMARK   62  A    between atoms: _160  and  _162
REMARK   63  A    between atoms: _162  and  _163
REMARK   64  A    between atoms: _162  and  _165
REMARK   65  A    between atoms: _165  and  _166
REMARK   66  A    between atoms: _172  and  _173
REMARK   67  A    between atoms: _178  and  _180
REMARK   68  A    between atoms: _180  and  _181
REMARK   69  A    between atoms: _180  and  _183
REMARK   70  A    between atoms: _183  and  _184
REMARK   71  A    between atoms: _186  and  _188
REMARK   72  A    between atoms: _188  and  _189
REMARK   73  A    between atoms: _188  and  _191
REMARK   74  A    between atoms: _191  and  _192
REMARK   75  A    between atoms: _197  and  _198
REMARK   76  A    between atoms: _200  and  _202
REMARK   77  A    between atoms: _202  and  _203
REMARK   78  A    between atoms: _202  and  _205
REMARK   79  A    between atoms: _205  and  _206
REMARK   80  A    between atoms: _211  and  _213
REMARK   81  A    between atoms: _213  and  _214
REMARK   82  A    between atoms: _213  and  _216
REMARK   83  A    between atoms: _216  and  _217
REMARK   84  A    between atoms: _222  and  _224
REMARK   85  A    between atoms: _224  and  _225
REMARK   86  A    between atoms: _224  and  _227
REMARK   87  A    between atoms: _227  and  _228
REMARK   88  A    between atoms: _228  and  _229
REMARK   89  A    between atoms: _231  and  _233
REMARK   90  A    between atoms: _233  and  _234
REMARK   91  A    between atoms: _233  and  _236
REMARK   92  A    between atoms: _236  and  _237
REMARK   93  A    between atoms: _242  and  _243
REMARK   94  A    between atoms: _245  and  _247
REMARK   95  A    between atoms: _247  and  _248
REMARK   96  A    between atoms: _247  and  _250
REMARK   97  A    between atoms: _250  and  _251
REMARK   98  A    between atoms: _254  and  _256
REMARK   99  A    between atoms: _256  and  _257
REMARK  100  A    between atoms: _256  and  _259
REMARK  101  A    between atoms: _259  and  _260
REMARK  102  A    between atoms: _260  and  _477
REMARK  103  A    between atoms: _261  and  _263
REMARK  104  A    between atoms: _263  and  _264
REMARK  105  A    between atoms: _263  and  _266
REMARK  106  A    between atoms: _266  and  _267
REMARK  107  A    between atoms: _270  and  _272
REMARK  108  A    between atoms: _272  and  _273
REMARK  109  A    between atoms: _272  and  _275
REMARK  110  A    between atoms: _275  and  _276
REMARK  111  A    between atoms: _281  and  _282
REMARK  112  A    between atoms: _284  and  _286
REMARK  113  A    between atoms: _286  and  _287
REMARK  114  A    between atoms: _286  and  _289
REMARK  115  A    between atoms: _289  and  _290
REMARK  116  A    between atoms: _295  and  _296
REMARK  117  A    between atoms: _298  and  _300
REMARK  118  A    between atoms: _300  and  _301
REMARK  119  A    between atoms: _300  and  _303
REMARK  120  A    between atoms: _303  and  _304
REMARK  121  A    between atoms: _304  and  _305
REMARK  122  A    between atoms: _308  and  _310
REMARK  123  A    between atoms: _310  and  _311
REMARK  124  A    between atoms: _310  and  _313
REMARK  125  A    between atoms: _313  and  _314
REMARK  126  A    between atoms: _319  and  _320
REMARK  127  A    between atoms: _322  and  _324
REMARK  128  A    between atoms: _324  and  _325
REMARK  129  A    between atoms: _324  and  _327
REMARK  130  A    between atoms: _327  and  _328
REMARK  131  A    between atoms: _333  and  _335
REMARK  132  A    between atoms: _335  and  _336
REMARK  133  A    between atoms: _335  and  _338
REMARK  134  A    between atoms: _338  and  _339
REMARK  135  A    between atoms: _342  and  _344
REMARK  136  A    between atoms: _344  and  _345
REMARK  137  A    between atoms: _344  and  _347
REMARK  138  A    between atoms: _347  and  _348
REMARK  139  A    between atoms: _353  and  _355
REMARK  140  A    between atoms: _355  and  _356
REMARK  141  A    between atoms: _355  and  _358
REMARK  142  A    between atoms: _358  and  _359
REMARK  143  A    between atoms: _369  and  _371
REMARK  144  A    between atoms: _371  and  _372
REMARK  145  A    between atoms: _371  and  _374
REMARK  146  A    between atoms: _374  and  _375
REMARK  147  A    between atoms: _381  and  _383
REMARK  148  A    between atoms: _383  and  _384
REMARK  149  A    between atoms: _383  and  _386
REMARK  150  A    between atoms: _386  and  _387
REMARK  151  A    between atoms: _390  and  _392
REMARK  152  A    between atoms: _392  and  _393
REMARK  153  A    between atoms: _392  and  _395
REMARK  154  A    between atoms: _395  and  _396
REMARK  155  A    between atoms: _399  and  _401
REMARK  156  A    between atoms: _401  and  _402
REMARK  157  A    between atoms: _401  and  _404
REMARK  158  A    between atoms: _404  and  _405
REMARK  159  A    between atoms: _405  and  _406
REMARK  160  A    between atoms: _406  and  _407
REMARK  161  A    between atoms: _416  and  _418
REMARK  162  A    between atoms: _418  and  _419
REMARK  163  A    between atoms: _418  and  _421
REMARK  164  A    between atoms: _421  and  _422
REMARK  165  A    between atoms: _427  and  _429
REMARK  166  A    between atoms: _429  and  _430
REMARK  167  A    between atoms: _429  and  _432
REMARK  168  A    between atoms: _432  and  _433
REMARK  169  A    between atoms: _433  and  _434
REMARK  170  A    between atoms: _434  and  _435
REMARK  171  A    between atoms: _444  and  _446
REMARK  172  A    between atoms: _446  and  _447
REMARK  173  A    between atoms: _450  and  _452
REMARK  174  A    between atoms: _452  and  _453
REMARK  175  A    between atoms: _455  and  _457
REMARK  176  A    between atoms: _457  and  _458
REMARK  177  A    between atoms: _457  and  _460
REMARK  178  A    between atoms: _460  and  _461
REMARK  179  A    between atoms: _471  and  _473
REMARK  180  A    between atoms: _473  and  _474
REMARK  181  A    between atoms: _473  and  _476
REMARK  182  A    between atoms: _476  and  _477
REMARK  183  A    between atoms: _478  and  _480
REMARK  184  A    between atoms: _480  and  _481
REMARK  185  A    between atoms: _484  and  _486
REMARK  186  A    between atoms: _486  and  _487
REMARK  187  A    between atoms: _486  and  _489
REMARK  188  A    between atoms: _489  and  _490
REMARK  189  A    between atoms: _493  and  _495
REMARK  190  A    between atoms: _495  and  _496
REMARK  191  A    between atoms: _495  and  _498
REMARK  192  A    between atoms: _498  and  _499
REMARK  193  A    between atoms: _504  and  _505
REMARK  194  A    between atoms: _507  and  _509
REMARK  195  A    between atoms: _509  and  _510
REMARK  196  A    between atoms: _509  and  _512
REMARK  197  A    between atoms: _512  and  _513
REMARK  198  A    between atoms: _515  and  _517
REMARK  199  A    between atoms: _517  and  _518
REMARK  200  A    between atoms: _517  and  _520
REMARK  201  A    between atoms: _520  and  _521
REMARK  202  A    between atoms: _527  and  _529
REMARK  203  A    between atoms: _529  and  _530
REMARK  204  A    between atoms: _529  and  _532
REMARK  205  A    between atoms: _532  and  _533
REMARK  206  A    between atoms: _536  and  _538
REMARK  207  A    between atoms: _538  and  _539
REMARK  208  A    between atoms: _538  and  _541
REMARK  209  A    between atoms: _541  and  _542
REMARK  210  A    between atoms: _544  and  _546
REMARK  211  A    between atoms: _546  and  _547
REMARK  212  A    between atoms: _546  and  _549
REMARK  213  A    between atoms: _549  and  _550
REMARK  214  A    between atoms: _555  and  _557
REMARK  215  A    between atoms: _557  and  _558
REMARK  216  A    between atoms: _557  and  _560
REMARK  217  A    between atoms: _560  and  _561
REMARK  218  A    between atoms: _566  and  _568
REMARK  219  A    between atoms: _568  and  _569
REMARK  220  A    between atoms: _568  and  _571
REMARK  221  A    between atoms: _571  and  _572
REMARK  222  A    between atoms: _575  and  _577
REMARK  223  A    between atoms: _577  and  _578
REMARK  224  A    between atoms: _581  and  _583
REMARK  225  A    between atoms: _583  and  _584
REMARK  226  A    between atoms: _583  and  _586
REMARK  227  A    between atoms: _586  and  _587
REMARK  228  A    between atoms: _592  and  _593
REMARK  229  A    between atoms: _595  and  _597
REMARK  230  A    between atoms: _597  and  _598
REMARK  231  A    between atoms: _597  and  _600
REMARK  232  A    between atoms: _600  and  _601
REMARK  233  A    between atoms: _606  and  _607
REMARK  234  A    between atoms: _609  and  _611
REMARK  235  A    between atoms: _611  and  _612
REMARK  236  A    between atoms: _611  and  _614
REMARK  237  A    between atoms: _617  and  _619
REMARK  238  A    between atoms: _619  and  _620
REMARK  239  A    between atoms: _619  and  _622
REMARK  240  A    between atoms: _622  and  _623
REMARK  241  A    between atoms: _628  and  _630
REMARK  242  A    between atoms: _630  and  _631
REMARK  243  A    between atoms: _634  and  _636
REMARK  244  A    between atoms: _636  and  _637
REMARK  245  A    between atoms: _636  and  _639
REMARK  246  A    between atoms: _639  and  _640
REMARK  247  A    between atoms: _640  and  _641
REMARK  248  A    between atoms: _641  and  _642
REMARK  249  A    between atoms: _651  and  _653
REMARK  250  A    between atoms: _653  and  _654
REMARK  251  A    between atoms: _653  and  _656
REMARK  252  A    between atoms: _656  and  _657
REMARK  253  A    between atoms: _660  and  _662
REMARK  254  A    between atoms: _662  and  _663
REMARK  255  A    between atoms: _662  and  _665
REMARK  256  A    between atoms: _665  and  _666
REMARK  257  A    between atoms: _669  and  _671
REMARK  258  A    between atoms: _671  and  _672
REMARK  259  A    between atoms: _671  and  _674
REMARK  260  A    between atoms: _674  and  _675
REMARK                            x       y       z     vdW  Elec       q    Type
REMARK                         _______ _______ _______ _____ _____    ______ ____
ROOT
ATOM      1  O   HOH     1      -8.394  14.567  12.624  0.00  0.00    +0.000 OA
ENDROOT
TORSDOF 0
REMARK  Name = ../refined-set-2016/1b32/1b32_pocket.pdb
REMARK  260 active torsions:
REMARK  status: ('A' for Active; 'I' for Inactive)
REMARK    1  A    between atoms: _1  and  _3
REMARK    2  A    between atoms: _3  and  _4
REMARK    3  A    between atoms: _3  and  _6
REMARK    4  A    between atoms: _6  and  _7
REMARK    5  A    between atoms: _12  and  _14
REMARK    6  A    between atoms: _14  and  _15
REMARK    7  A    between atoms: _14  and  _17
REMARK    8  A    between atoms: _17  and  _18
REMARK    9  A    between atoms: _20  and  _22
REMARK   10  A    between atoms: _22  and  _23
REMARK   11  A    between atoms: _22  and  _25
REMARK   12  A    between atoms: _25  and  _26
REMARK   13  A    between atoms: _26  and  _27
REMARK   14  A    between atoms: _32  and  _34
REMARK   15  A    between atoms: _34  and  _35
REMARK   16  A    between atoms: _34  and  _37
REMARK   17  A    between atoms: _37  and  _38
REMARK   18  A    between atoms: _41  and  _43
REMARK   19  A    between atoms: _43  and  _44
REMARK   20  A    between atoms: _43  and  _46
REMARK   21  A    between atoms: _46  and  _47
REMARK   22  A    between atoms: _47  and  _48
REMARK   23  A    between atoms: _51  and  _53
REMARK   24  A    between atoms: _53  and  _54
REMARK   25  A    between atoms: _56  and  _58
REMARK   26  A    between atoms: _58  and  _59
REMARK   27  A    between atoms: _58  and  _61
REMARK   28  A    between atoms: _65  and  _66
REMARK   29  A    between atoms: _71  and  _73
REMARK   30  A    between atoms: _73  and  _74
REMARK   31  A    between atoms: _73  and  _76
REMARK   32  A    between atoms: _76  and  _77
REMARK   33  A    between atoms: _77  and  _78
REMARK   34  A    between atoms: _81  and  _83
REMARK   35  A    between atoms: _83  and  _84
REMARK   36  A    between atoms: _83  and  _86
REMARK   37  A    between atoms: _86  and  _87
REMARK   38  A    between atoms: _89  and  _91
REMARK   39  A    between atoms: _91  and  _92
REMARK   40  A    between atoms: _91  and  _94
REMARK   41  A    between atoms: _94  and  _95
REMARK   42  A    between atoms: _100  and  _102
REMARK   43  A    between atoms: _102  and  _103
REMARK   44  A    between atoms: _102  and  _105
REMARK   45  A    between atoms: _105  and  _106
REMARK   46  A    between atoms: _106  and  _107
REMARK   47  A    between atoms: _107  and  _108
REMARK   48  A    between atoms: _118  and  _119
REMARK   49  A    between atoms: _124  and  _126
REMARK   50  A    between atoms: _126  and  _127
REMARK   51  A    between atoms: _126  and  _129
REMARK   52  A    between atoms: _129  and  _130
REMARK   53  A    between atoms: _135  and  _136
REMARK   54  A    between atoms: _138  and  _140
REMARK   55  A    between atoms: _140  and  _141
REMARK   56  A    between atoms: _140  and  _143
REMARK   57  A    between atoms: _143  and  _144
REMARK   58  A    between atoms: _149  and  _150
REMARK   59  A    between atoms: _152  and  _154
REMARK   60  A    between atoms: _154  and  _155
REMARK   61  A    between atoms: _154  and  _157
REMARK   62  A    between atoms: _160  and  _162
REMARK   63  A    between atoms: _162  and  _163
REMARK   64  A    between atoms: _162  and  _165
REMARK   65  A    between atoms: _165  and  _166
REMARK   66  A    between atoms: _172  and  _173
REMARK   67  A    between atoms: _178  and  _180
REMARK   68  A    between atoms: _180  and  _181
REMARK   69  A    between atoms: _180  and  _183
REMARK   70  A    between atoms: _183  and  _184
REMARK   71  A    between atoms: _186  and  _188
REMARK   72  A    between atoms: _188  and  _189
REMARK   73  A    between atoms: _188  and  _191
REMARK   74  A    between atoms: _191  and  _192
REMARK   75  A    between atoms: _197  and  _198
REMARK   76  A    between atoms: _200  and  _202
REMARK   77  A    between atoms: _202  and  _203
REMARK   78  A    between atoms: _202  and  _205
REMARK   79  A    between atoms: _205  and  _206
REMARK   80  A    between atoms: _211  and  _213
REMARK   81  A    between atoms: _213  and  _214
REMARK   82  A    between atoms: _213  and  _216
REMARK   83  A    between atoms: _216  and  _217
REMARK   84  A    between atoms: _222  and  _224
REMARK   85  A    between atoms: _224  and  _225
REMARK   86  A    between atoms: _224  and  _227
REMARK   87  A    between atoms: _227  and  _228
REMARK   88  A    between atoms: _228  and  _229
REMARK   89  A    between atoms: _231  and  _233
REMARK   90  A    between atoms: _233  and  _234
REMARK   91  A    between atoms: _233  and  _236
REMARK   92  A    between atoms: _236  and  _237
REMARK   93  A    between atoms: _242  and  _243
REMARK   94  A    between atoms: _245  and  _247
REMARK   95  A    between atoms: _247  and  _248
REMARK   96  A    between atoms: _247  and  _250
REMARK   97  A    between atoms: _250  and  _251
REMARK   98  A    between atoms: _254  and  _256
REMARK   99  A    between atoms: _256  and  _257
REMARK  100  A    between atoms: _256  and  _259
REMARK  101  A    between atoms: _259  and  _260
REMARK  102  A    between atoms: _260  and  _477
REMARK  103  A    between atoms: _261  and  _263
REMARK  104  A    between atoms: _263  and  _264
REMARK  105  A    between atoms: _263  and  _266
REMARK  106  A    between atoms: _266  and  _267
REMARK  107  A    between atoms: _270  and  _272
REMARK  108  A    between atoms: _272  and  _273
REMARK  109  A    between atoms: _272  and  _275
REMARK  110  A    between atoms: _275  and  _276
REMARK  111  A    between atoms: _281  and  _282
REMARK  112  A    between atoms: _284  and  _286
REMARK  113  A    between atoms: _286  and  _287
REMARK  114  A    between atoms: _286  and  _289
REMARK  115  A    between atoms: _289  and  _290
REMARK  116  A    between atoms: _295  and  _296
REMARK  117  A    between atoms: _298  and  _300
REMARK  118  A    between atoms: _300  and  _301
REMARK  119  A    between atoms: _300  and  _303
REMARK  120  A    between atoms: _303  and  _304
REMARK  121  A    between atoms: _304  and  _305
REMARK  122  A    between atoms: _308  and  _310
REMARK  123  A    between atoms: _310  and  _311
REMARK  124  A    between atoms: _310  and  _313
REMARK  125  A    between atoms: _313  and  _314
REMARK  126  A    between atoms: _319  and  _320
REMARK  127  A    between atoms: _322  and  _324
REMARK  128  A    between atoms: _324  and  _325
REMARK  129  A    between atoms: _324  and  _327
REMARK  130  A    between atoms: _327  and  _328
REMARK  131  A    between atoms: _333  and  _335
REMARK  132  A    between atoms: _335  and  _336
REMARK  133  A    between atoms: _335  and  _338
REMARK  134  A    between atoms: _338  and  _339
REMARK  135  A    between atoms: _342  and  _344
REMARK  136  A    between atoms: _344  and  _345
REMARK  137  A    between atoms: _344  and  _347
REMARK  138  A    between atoms: _347  and  _348
REMARK  139  A    between atoms: _353  and  _355
REMARK  140  A    between atoms: _355  and  _356
REMARK  141  A    between atoms: _355  and  _358
REMARK  142  A    between atoms: _358  and  _359
REMARK  143  A    between atoms: _369  and  _371
REMARK  144  A    between atoms: _371  and  _372
REMARK  145  A    between atoms: _371  and  _374
REMARK  146  A    between atoms: _374  and  _375
REMARK  147  A    between atoms: _381  and  _383
REMARK  148  A    between atoms: _383  and  _384
REMARK  149  A    between atoms: _383  and  _386
REMARK  150  A    between atoms: _386  and  _387
REMARK  151  A    between atoms: _390  and  _392
REMARK  152  A    between atoms: _392  and  _393
REMARK  153  A    between atoms: _392  and  _395
REMARK  154  A    between atoms: _395  and  _396
REMARK  155  A    between atoms: _399  and  _401
REMARK  156  A    between atoms: _401  and  _402
REMARK  157  A    between atoms: _401  and  _404
REMARK  158  A    between atoms: _404  and  _405
REMARK  159  A    between atoms: _405  and  _406
REMARK  160  A    between atoms: _406  and  _407
REMARK  161  A    between atoms: _416  and  _418
REMARK  162  A    between atoms: _418  and  _419
REMARK  163  A    between atoms: _418  and  _421
REMARK  164  A    between atoms: _421  and  _422
REMARK  165  A    between atoms: _427  and  _429
REMARK  166  A    between atoms: _429  and  _430
REMARK  167  A    between atoms: _429  and  _432
REMARK  168  A    between atoms: _432  and  _433
REMARK  169  A    between atoms: _433  and  _434
REMARK  170  A    between atoms: _434  and  _435
REMARK  171  A    between atoms: _444  and  _446
REMARK  172  A    between atoms: _446  and  _447
REMARK  173  A    between atoms: _450  and  _452
REMARK  174  A    between atoms: _452  and  _453
REMARK  175  A    between atoms: _455  and  _457
REMARK  176  A    between atoms: _457  and  _458
REMARK  177  A    between atoms: _457  and  _460
REMARK  178  A    between atoms: _460  and  _461
REMARK  179  A    between atoms: _471  and  _473
REMARK  180  A    between atoms: _473  and  _474
REMARK  181  A    between atoms: _473  and  _476
REMARK  182  A    between atoms: _476  and  _477
REMARK  183  A    between atoms: _478  and  _480
REMARK  184  A    between atoms: _480  and  _481
REMARK  185  A    between atoms: _484  and  _486
REMARK  186  A    between atoms: _486  and  _487
REMARK  187  A    between atoms: _486  and  _489
REMARK  188  A    between atoms: _489  and  _490
REMARK  189  A    between atoms: _493  and  _495
REMARK  190  A    between atoms: _495  and  _496
REMARK  191  A    between atoms: _495  and  _498
REMARK  192  A    between atoms: _498  and  _499
REMARK  193  A    between atoms: _504  and  _505
REMARK  194  A    between atoms: _507  and  _509
REMARK  195  A    between atoms: _509  and  _510
REMARK  196  A    between atoms: _509  and  _512
REMARK  197  A    between atoms: _512  and  _513
REMARK  198  A    between atoms: _515  and  _517
REMARK  199  A    between atoms: _517  and  _518
REMARK  200  A    between atoms: _517  and  _520
REMARK  201  A    between atoms: _520  and  _521
REMARK  202  A    between atoms: _527  and  _529
REMARK  203  A    between atoms: _529  and  _530
REMARK  204  A    between atoms: _529  and  _532
REMARK  205  A    between atoms: _532  and  _533
REMARK  206  A    between atoms: _536  and  _538
REMARK  207  A    between atoms: _538  and  _539
REMARK  208  A    between atoms: _538  and  _541
REMARK  209  A    between atoms: _541  and  _542
REMARK  210  A    between atoms: _544  and  _546
REMARK  211  A    between atoms: _546  and  _547
REMARK  212  A    between atoms: _546  and  _549
REMARK  213  A    between atoms: _549  and  _550
REMARK  214  A    between atoms: _555  and  _557
REMARK  215  A    between atoms: _557  and  _558
REMARK  216  A    between atoms: _557  and  _560
REMARK  217  A    between atoms: _560  and  _561
REMARK  218  A    between atoms: _566  and  _568
REMARK  219  A    between atoms: _568  and  _569
REMARK  220  A    between atoms: _568  and  _571
REMARK  221  A    between atoms: _571  and  _572
REMARK  222  A    between atoms: _575  and  _577
REMARK  223  A    between atoms: _577  and  _578
REMARK  224  A    between atoms: _581  and  _583
REMARK  225  A    between atoms: _583  and  _584
REMARK  226  A    between atoms: _583  and  _586
REMARK  227  A    between atoms: _586  and  _587
REMARK  228  A    between atoms: _592  and  _593
REMARK  229  A    between atoms: _595  and  _597
REMARK  230  A    between atoms: _597  and  _598
REMARK  231  A    between atoms: _597  and  _600
REMARK  232  A    between atoms: _600  and  _601
REMARK  233  A    between atoms: _606  and  _607
REMARK  234  A    between atoms: _609  and  _611
REMARK  235  A    between atoms: _611  and  _612
REMARK  236  A    between atoms: _611  and  _614
REMARK  237  A    between atoms: _617  and  _619
REMARK  238  A    between atoms: _619  and  _620
REMARK  239  A    between atoms: _619  and  _622
REMARK  240  A    between atoms: _622  and  _623
REMARK  241  A    between atoms: _628  and  _630
REMARK  242  A    between atoms: _630  and  _631
REMARK  243  A    between atoms: _634  and  _636
REMARK  244  A    between atoms: _636  and  _637
REMARK  245  A    between atoms: _636  and  _639
REMARK  246  A    between atoms: _639  and  _640
REMARK  247  A    between atoms: _640  and  _641
REMARK  248  A    between atoms: _641  and  _642
REMARK  249  A    between atoms: _651  and  _653
REMARK  250  A    between atoms: _653  and  _654
REMARK  251  A    between atoms: _653  and  _656
REMARK  252  A    between atoms: _656  and  _657
REMARK  253  A    between atoms: _660  and  _662
REMARK  254  A    between atoms: _662  and  _663
REMARK  255  A    between atoms: _662  and  _665
REMARK  256  A    between atoms: _665  and  _666
REMARK  257  A    between atoms: _669  and  _671
REMARK  258  A    between atoms: _671  and  _672
REMARK  259  A    between atoms: _671  and  _674
REMARK  260  A    between atoms: _674  and  _675
REMARK                            x       y       z     vdW  Elec       q    Type
REMARK                         _______ _______ _______ _____ _____    ______ ____
ROOT
ATOM      1  O   HOH     1      -7.350  16.770  15.113  0.00  0.00    +0.000 OA
ENDROOT
TORSDOF 0
REMARK  Name = ../refined-set-2016/1b32/1b32_pocket.pdb
REMARK  260 active torsions:
REMARK  status: ('A' for Active; 'I' for Inactive)
REMARK    1  A    between atoms: _1  and  _3
REMARK    2  A    between atoms: _3  and  _4
REMARK    3  A    between atoms: _3  and  _6
REMARK    4  A    between atoms: _6  and  _7
REMARK    5  A    between atoms: _12  and  _14
REMARK    6  A    between atoms: _14  and  _15
REMARK    7  A    between atoms: _14  and  _17
REMARK    8  A    between atoms: _17  and  _18
REMARK    9  A    between atoms: _20  and  _22
REMARK   10  A    between atoms: _22  and  _23
REMARK   11  A    between atoms: _22  and  _25
REMARK   12  A    between atoms: _25  and  _26
REMARK   13  A    between atoms: _26  and  _27
REMARK   14  A    between atoms: _32  and  _34
REMARK   15  A    between atoms: _34  and  _35
REMARK   16  A    between atoms: _34  and  _37
REMARK   17  A    between atoms: _37  and  _38
REMARK   18  A    between atoms: _41  and  _43
REMARK   19  A    between atoms: _43  and  _44
REMARK   20  A    between atoms: _43  and  _46
REMARK   21  A    between atoms: _46  and  _47
REMARK   22  A    between atoms: _47  and  _48
REMARK   23  A    between atoms: _51  and  _53
REMARK   24  A    between atoms: _53  and  _54
REMARK   25  A    between atoms: _56  and  _58
REMARK   26  A    between atoms: _58  and  _59
REMARK   27  A    between atoms: _58  and  _61
REMARK   28  A    between atoms: _65  and  _66
REMARK   29  A    between atoms: _71  and  _73
REMARK   30  A    between atoms: _73  and  _74
REMARK   31  A    between atoms: _73  and  _76
REMARK   32  A    between atoms: _76  and  _77
REMARK   33  A    between atoms: _77  and  _78
REMARK   34  A    between atoms: _81  and  _83
REMARK   35  A    between atoms: _83  and  _84
REMARK   36  A    between atoms: _83  and  _86
REMARK   37  A    between atoms: _86  and  _87
REMARK   38  A    between atoms: _89  and  _91
REMARK   39  A    between atoms: _91  and  _92
REMARK   40  A    between atoms: _91  and  _94
REMARK   41  A    between atoms: _94  and  _95
REMARK   42  A    between atoms: _100  and  _102
REMARK   43  A    between atoms: _102  and  _103
REMARK   44  A    between atoms: _102  and  _105
REMARK   45  A    between atoms: _105  and  _106
REMARK   46  A    between atoms: _106  and  _107
REMARK   47  A    between atoms: _107  and  _108
REMARK   48  A    between atoms: _118  and  _119
REMARK   49  A    between atoms: _124  and  _126
REMARK   50  A    between atoms: _126  and  _127
REMARK   51  A    between atoms: _126  and  _129
REMARK   52  A    between atoms: _129  and  _130
REMARK   53  A    between atoms: _135  and  _136
REMARK   54  A    between atoms: _138  and  _140
REMARK   55  A    between atoms: _140  and  _141
REMARK   56  A    between atoms: _140  and  _143
REMARK   57  A    between atoms: _143  and  _144
REMARK   58  A    between atoms: _149  and  _150
REMARK   59  A    between atoms: _152  and  _154
REMARK   60  A    between atoms: _154  and  _155
REMARK   61  A    between atoms: _154  and  _157
REMARK   62  A    between atoms: _160  and  _162
REMARK   63  A    between atoms: _162  and  _163
REMARK   64  A    between atoms: _162  and  _165
REMARK   65  A    between atoms: _165  and  _166
REMARK   66  A    between atoms: _172  and  _173
REMARK   67  A    between atoms: _178  and  _180
REMARK   68  A    between atoms: _180  and  _181
REMARK   69  A    between atoms: _180  and  _183
REMARK   70  A    between atoms: _183  and  _184
REMARK   71  A    between atoms: _186  and  _188
REMARK   72  A    between atoms: _188  and  _189
REMARK   73  A    between atoms: _188  and  _191
REMARK   74  A    between atoms: _191  and  _192
REMARK   75  A    between atoms: _197  and  _198
REMARK   76  A    between atoms: _200  and  _202
REMARK   77  A    between atoms: _202  and  _203
REMARK   78  A    between atoms: _202  and  _205
REMARK   79  A    between atoms: _205  and  _206
REMARK   80  A    between atoms: _211  and  _213
REMARK   81  A    between atoms: _213  and  _214
REMARK   82  A    between atoms: _213  and  _216
REMARK   83  A    between atoms: _216  and  _217
REMARK   84  A    between atoms: _222  and  _224
REMARK   85  A    between atoms: _224  and  _225
REMARK   86  A    between atoms: _224  and  _227
REMARK   87  A    between atoms: _227  and  _228
REMARK   88  A    between atoms: _228  and  _229
REMARK   89  A    between atoms: _231  and  _233
REMARK   90  A    between atoms: _233  and  _234
REMARK   91  A    between atoms: _233  and  _236
REMARK   92  A    between atoms: _236  and  _237
REMARK   93  A    between atoms: _242  and  _243
REMARK   94  A    between atoms: _245  and  _247
REMARK   95  A    between atoms: _247  and  _248
REMARK   96  A    between atoms: _247  and  _250
REMARK   97  A    between atoms: _250  and  _251
REMARK   98  A    between atoms: _254  and  _256
REMARK   99  A    between atoms: _256  and  _257
REMARK  100  A    between atoms: _256  and  _259
REMARK  101  A    between atoms: _259  and  _260
REMARK  102  A    between atoms: _260  and  _477
REMARK  103  A    between atoms: _261  and  _263
REMARK  104  A    between atoms: _263  and  _264
REMARK  105  A    between atoms: _263  and  _266
REMARK  106  A    between atoms: _266  and  _267
REMARK  107  A    between atoms: _270  and  _272
REMARK  108  A    between atoms: _272  and  _273
REMARK  109  A    between atoms: _272  and  _275
REMARK  110  A    between atoms: _275  and  _276
REMARK  111  A    between atoms: _281  and  _282
REMARK  112  A    between atoms: _284  and  _286
REMARK  113  A    between atoms: _286  and  _287
REMARK  114  A    between atoms: _286  and  _289
REMARK  115  A    between atoms: _289  and  _290
REMARK  116  A    between atoms: _295  and  _296
REMARK  117  A    between atoms: _298  and  _300
REMARK  118  A    between atoms: _300  and  _301
REMARK  119  A    between atoms: _300  and  _303
REMARK  120  A    between atoms: _303  and  _304
REMARK  121  A    between atoms: _304  and  _305
REMARK  122  A    between atoms: _308  and  _310
REMARK  123  A    between atoms: _310  and  _311
REMARK  124  A    between atoms: _310  and  _313
REMARK  125  A    between atoms: _313  and  _314
REMARK  126  A    between atoms: _319  and  _320
REMARK  127  A    between atoms: _322  and  _324
REMARK  128  A    between atoms: _324  and  _325
REMARK  129  A    between atoms: _324  and  _327
REMARK  130  A    between atoms: _327  and  _328
REMARK  131  A    between atoms: _333  and  _335
REMARK  132  A    between atoms: _335  and  _336
REMARK  133  A    between atoms: _335  and  _338
REMARK  134  A    between atoms: _338  and  _339
REMARK  135  A    between atoms: _342  and  _344
REMARK  136  A    between atoms: _344  and  _345
REMARK  137  A    between atoms: _344  and  _347
REMARK  138  A    between atoms: _347  and  _348
REMARK  139  A    between atoms: _353  and  _355
REMARK  140  A    between atoms: _355  and  _356
REMARK  141  A    between atoms: _355  and  _358
REMARK  142  A    between atoms: _358  and  _359
REMARK  143  A    between atoms: _369  and  _371
REMARK  144  A    between atoms: _371  and  _372
REMARK  145  A    between atoms: _371  and  _374
REMARK  146  A    between atoms: _374  and  _375
REMARK  147  A    between atoms: _381  and  _383
REMARK  148  A    between atoms: _383  and  _384
REMARK  149  A    between atoms: _383  and  _386
REMARK  150  A    between atoms: _386  and  _387
REMARK  151  A    between atoms: _390  and  _392
REMARK  152  A    between atoms: _392  and  _393
REMARK  153  A    between atoms: _392  and  _395
REMARK  154  A    between atoms: _395  and  _396
REMARK  155  A    between atoms: _399  and  _401
REMARK  156  A    between atoms: _401  and  _402
REMARK  157  A    between atoms: _401  and  _404
REMARK  158  A    between atoms: _404  and  _405
REMARK  159  A    between atoms: _405  and  _406
REMARK  160  A    between atoms: _406  and  _407
REMARK  161  A    between atoms: _416  and  _418
REMARK  162  A    between atoms: _418  and  _419
REMARK  163  A    between atoms: _418  and  _421
REMARK  164  A    between atoms: _421  and  _422
REMARK  165  A    between atoms: _427  and  _429
REMARK  166  A    between atoms: _429  and  _430
REMARK  167  A    between atoms: _429  and  _432
REMARK  168  A    between atoms: _432  and  _433
REMARK  169  A    between atoms: _433  and  _434
REMARK  170  A    between atoms: _434  and  _435
REMARK  171  A    between atoms: _444  and  _446
REMARK  172  A    between atoms: _446  and  _447
REMARK  173  A    between atoms: _450  and  _452
REMARK  174  A    between atoms: _452  and  _453
REMARK  175  A    between atoms: _455  and  _457
REMARK  176  A    between atoms: _457  and  _458
REMARK  177  A    between atoms: _457  and  _460
REMARK  178  A    between atoms: _460  and  _461
REMARK  179  A    between atoms: _471  and  _473
REMARK  180  A    between atoms: _473  and  _474
REMARK  181  A    between atoms: _473  and  _476
REMARK  182  A    between atoms: _476  and  _477
REMARK  183  A    between atoms: _478  and  _480
REMARK  184  A    between atoms: _480  and  _481
REMARK  185  A    between atoms: _484  and  _486
REMARK  186  A    between atoms: _486  and  _487
REMARK  187  A    between atoms: _486  and  _489
REMARK  188  A    between atoms: _489  and  _490
REMARK  189  A    between atoms: _493  and  _495
REMARK  190  A    between atoms: _495  and  _496
REMARK  191  A    between atoms: _495  and  _498
REMARK  192  A    between atoms: _498  and  _499
REMARK  193  A    between atoms: _504  and  _505
REMARK  194  A    between atoms: _507  and  _509
REMARK  195  A    between atoms: _509  and  _510
REMARK  196  A    between atoms: _509  and  _512
REMARK  197  A    between atoms: _512  and  _513
REMARK  198  A    between atoms: _515  and  _517
REMARK  199  A    between atoms: _517  and  _518
REMARK  200  A    between atoms: _517  and  _520
REMARK  201  A    between atoms: _520  and  _521
REMARK  202  A    between atoms: _527  and  _529
REMARK  203  A    between atoms: _529  and  _530
REMARK  204  A    between atoms: _529  and  _532
REMARK  205  A    between atoms: _532  and  _533
REMARK  206  A    between atoms: _536  and  _538
REMARK  207  A    between atoms: _538  and  _539
REMARK  208  A    between atoms: _538  and  _541
REMARK  209  A    between atoms: _541  and  _542
REMARK  210  A    between atoms: _544  and  _546
REMARK  211  A    between atoms: _546  and  _547
REMARK  212  A    between atoms: _546  and  _549
REMARK  213  A    between atoms: _549  and  _550
REMARK  214  A    between atoms: _555  and  _557
REMARK  215  A    between atoms: _557  and  _558
REMARK  216  A    between atoms: _557  and  _560
REMARK  217  A    between atoms: _560  and  _561
REMARK  218  A    between atoms: _566  and  _568
REMARK  219  A    between atoms: _568  and  _569
REMARK  220  A    between atoms: _568  and  _571
REMARK  221  A    between atoms: _571  and  _572
REMARK  222  A    between atoms: _575  and  _577
REMARK  223  A    between atoms: _577  and  _578
REMARK  224  A    between atoms: _581  and  _583
REMARK  225  A    between atoms: _583  and  _584
REMARK  226  A    between atoms: _583  and  _586
REMARK  227  A    between atoms: _586  and  _587
REMARK  228  A    between atoms: _592  and  _593
REMARK  229  A    between atoms: _595  and  _597
REMARK  230  A    between atoms: _597  and  _598
REMARK  231  A    between atoms: _597  and  _600
REMARK  232  A    between atoms: _600  and  _601
REMARK  233  A    between atoms: _606  and  _607
REMARK  234  A    between atoms: _609  and  _611
REMARK  235  A    between atoms: _611  and  _612
REMARK  236  A    between atoms: _611  and  _614
REMARK  237  A    between atoms: _617  and  _619
REMARK  238  A    between atoms: _619  and  _620
REMARK  239  A    between atoms: _619  and  _622
REMARK  240  A    between atoms: _622  and  _623
REMARK  241  A    between atoms: _628  and  _630
REMARK  242  A    between atoms: _630  and  _631
REMARK  243  A    between atoms: _634  and  _636
REMARK  244  A    between atoms: _636  and  _637
REMARK  245  A    between atoms: _636  and  _639
REMARK  246  A    between atoms: _639  and  _640
REMARK  247  A    between atoms: _640  and  _641
REMARK  248  A    between atoms: _641  and  _642
REMARK  249  A    between atoms: _651  and  _653
REMARK  250  A    between atoms: _653  and  _654
REMARK  251  A    between atoms: _653  and  _656
REMARK  252  A    between atoms: _656  and  _657
REMARK  253  A    between atoms: _660  and  _662
REMARK  254  A    between atoms: _662  and  _663
REMARK  255  A    between atoms: _662  and  _665
REMARK  256  A    between atoms: _665  and  _666
REMARK  257  A    between atoms: _669  and  _671
REMARK  258  A    between atoms: _671  and  _672
REMARK  259  A    between atoms: _671  and  _674
REMARK  260  A    between atoms: _674  and  _675
REMARK                            x       y       z     vdW  Elec       q    Type
REMARK                         _______ _______ _______ _____ _____    ______ ____
ROOT
ATOM      1  O   HOH     1      -3.195  17.668   5.360  0.00  0.00    +0.000 OA
ENDROOT
TORSDOF 0
REMARK  Name = ../refined-set-2016/1b32/1b32_pocket.pdb
REMARK  260 active torsions:
REMARK  status: ('A' for Active; 'I' for Inactive)
REMARK    1  A    between atoms: _1  and  _3
REMARK    2  A    between atoms: _3  and  _4
REMARK    3  A    between atoms: _3  and  _6
REMARK    4  A    between atoms: _6  and  _7
REMARK    5  A    between atoms: _12  and  _14
REMARK    6  A    between atoms: _14  and  _15
REMARK    7  A    between atoms: _14  and  _17
REMARK    8  A    between atoms: _17  and  _18
REMARK    9  A    between atoms: _20  and  _22
REMARK   10  A    between atoms: _22  and  _23
REMARK   11  A    between atoms: _22  and  _25
REMARK   12  A    between atoms: _25  and  _26
REMARK   13  A    between atoms: _26  and  _27
REMARK   14  A    between atoms: _32  and  _34
REMARK   15  A    between atoms: _34  and  _35
REMARK   16  A    between atoms: _34  and  _37
REMARK   17  A    between atoms: _37  and  _38
REMARK   18  A    between atoms: _41  and  _43
REMARK   19  A    between atoms: _43  and  _44
REMARK   20  A    between atoms: _43  and  _46
REMARK   21  A    between atoms: _46  and  _47
REMARK   22  A    between atoms: _47  and  _48
REMARK   23  A    between atoms: _51  and  _53
REMARK   24  A    between atoms: _53  and  _54
REMARK   25  A    between atoms: _56  and  _58
REMARK   26  A    between atoms: _58  and  _59
REMARK   27  A    between atoms: _58  and  _61
REMARK   28  A    between atoms: _65  and  _66
REMARK   29  A    between atoms: _71  and  _73
REMARK   30  A    between atoms: _73  and  _74
REMARK   31  A    between atoms: _73  and  _76
REMARK   32  A    between atoms: _76  and  _77
REMARK   33  A    between atoms: _77  and  _78
REMARK   34  A    between atoms: _81  and  _83
REMARK   35  A    between atoms: _83  and  _84
REMARK   36  A    between atoms: _83  and  _86
REMARK   37  A    between atoms: _86  and  _87
REMARK   38  A    between atoms: _89  and  _91
REMARK   39  A    between atoms: _91  and  _92
REMARK   40  A    between atoms: _91  and  _94
REMARK   41  A    between atoms: _94  and  _95
REMARK   42  A    between atoms: _100  and  _102
REMARK   43  A    between atoms: _102  and  _103
REMARK   44  A    between atoms: _102  and  _105
REMARK   45  A    between atoms: _105  and  _106
REMARK   46  A    between atoms: _106  and  _107
REMARK   47  A    between atoms: _107  and  _108
REMARK   48  A    between atoms: _118  and  _119
REMARK   49  A    between atoms: _124  and  _126
REMARK   50  A    between atoms: _126  and  _127
REMARK   51  A    between atoms: _126  and  _129
REMARK   52  A    between atoms: _129  and  _130
REMARK   53  A    between atoms: _135  and  _136
REMARK   54  A    between atoms: _138  and  _140
REMARK   55  A    between atoms: _140  and  _141
REMARK   56  A    between atoms: _140  and  _143
REMARK   57  A    between atoms: _143  and  _144
REMARK   58  A    between atoms: _149  and  _150
REMARK   59  A    between atoms: _152  and  _154
REMARK   60  A    between atoms: _154  and  _155
REMARK   61  A    between atoms: _154  and  _157
REMARK   62  A    between atoms: _160  and  _162
REMARK   63  A    between atoms: _162  and  _163
REMARK   64  A    between atoms: _162  and  _165
REMARK   65  A    between atoms: _165  and  _166
REMARK   66  A    between atoms: _172  and  _173
REMARK   67  A    between atoms: _178  and  _180
REMARK   68  A    between atoms: _180  and  _181
REMARK   69  A    between atoms: _180  and  _183
REMARK   70  A    between atoms: _183  and  _184
REMARK   71  A    between atoms: _186  and  _188
REMARK   72  A    between atoms: _188  and  _189
REMARK   73  A    between atoms: _188  and  _191
REMARK   74  A    between atoms: _191  and  _192
REMARK   75  A    between atoms: _197  and  _198
REMARK   76  A    between atoms: _200  and  _202
REMARK   77  A    between atoms: _202  and  _203
REMARK   78  A    between atoms: _202  and  _205
REMARK   79  A    between atoms: _205  and  _206
REMARK   80  A    between atoms: _211  and  _213
REMARK   81  A    between atoms: _213  and  _214
REMARK   82  A    between atoms: _213  and  _216
REMARK   83  A    between atoms: _216  and  _217
REMARK   84  A    between atoms: _222  and  _224
REMARK   85  A    between atoms: _224  and  _225
REMARK   86  A    between atoms: _224  and  _227
REMARK   87  A    between atoms: _227  and  _228
REMARK   88  A    between atoms: _228  and  _229
REMARK   89  A    between atoms: _231  and  _233
REMARK   90  A    between atoms: _233  and  _234
REMARK   91  A    between atoms: _233  and  _236
REMARK   92  A    between atoms: _236  and  _237
REMARK   93  A    between atoms: _242  and  _243
REMARK   94  A    between atoms: _245  and  _247
REMARK   95  A    between atoms: _247  and  _248
REMARK   96  A    between atoms: _247  and  _250
REMARK   97  A    between atoms: _250  and  _251
REMARK   98  A    between atoms: _254  and  _256
REMARK   99  A    between atoms: _256  and  _257
REMARK  100  A    between atoms: _256  and  _259
REMARK  101  A    between atoms: _259  and  _260
REMARK  102  A    between atoms: _260  and  _477
REMARK  103  A    between atoms: _261  and  _263
REMARK  104  A    between atoms: _263  and  _264
REMARK  105  A    between atoms: _263  and  _266
REMARK  106  A    between atoms: _266  and  _267
REMARK  107  A    between atoms: _270  and  _272
REMARK  108  A    between atoms: _272  and  _273
REMARK  109  A    between atoms: _272  and  _275
REMARK  110  A    between atoms: _275  and  _276
REMARK  111  A    between atoms: _281  and  _282
REMARK  112  A    between atoms: _284  and  _286
REMARK  113  A    between atoms: _286  and  _287
REMARK  114  A    between atoms: _286  and  _289
REMARK  115  A    between atoms: _289  and  _290
REMARK  116  A    between atoms: _295  and  _296
REMARK  117  A    between atoms: _298  and  _300
REMARK  118  A    between atoms: _300  and  _301
REMARK  119  A    between atoms: _300  and  _303
REMARK  120  A    between atoms: _303  and  _304
REMARK  121  A    between atoms: _304  and  _305
REMARK  122  A    between atoms: _308  and  _310
REMARK  123  A    between atoms: _310  and  _311
REMARK  124  A    between atoms: _310  and  _313
REMARK  125  A    between atoms: _313  and  _314
REMARK  126  A    between atoms: _319  and  _320
REMARK  127  A    between atoms: _322  and  _324
REMARK  128  A    between atoms: _324  and  _325
REMARK  129  A    between atoms: _324  and  _327
REMARK  130  A    between atoms: _327  and  _328
REMARK  131  A    between atoms: _333  and  _335
REMARK  132  A    between atoms: _335  and  _336
REMARK  133  A    between atoms: _335  and  _338
REMARK  134  A    between atoms: _338  and  _339
REMARK  135  A    between atoms: _342  and  _344
REMARK  136  A    between atoms: _344  and  _345
REMARK  137  A    between atoms: _344  and  _347
REMARK  138  A    between atoms: _347  and  _348
REMARK  139  A    between atoms: _353  and  _355
REMARK  140  A    between atoms: _355  and  _356
REMARK  141  A    between atoms: _355  and  _358
REMARK  142  A    between atoms: _358  and  _359
REMARK  143  A    between atoms: _369  and  _371
REMARK  144  A    between atoms: _371  and  _372
REMARK  145  A    between atoms: _371  and  _374
REMARK  146  A    between atoms: _374  and  _375
REMARK  147  A    between atoms: _381  and  _383
REMARK  148  A    between atoms: _383  and  _384
REMARK  149  A    between atoms: _383  and  _386
REMARK  150  A    between atoms: _386  and  _387
REMARK  151  A    between atoms: _390  and  _392
REMARK  152  A    between atoms: _392  and  _393
REMARK  153  A    between atoms: _392  and  _395
REMARK  154  A    between atoms: _395  and  _396
REMARK  155  A    between atoms: _399  and  _401
REMARK  156  A    between atoms: _401  and  _402
REMARK  157  A    between atoms: _401  and  _404
REMARK  158  A    between atoms: _404  and  _405
REMARK  159  A    between atoms: _405  and  _406
REMARK  160  A    between atoms: _406  and  _407
REMARK  161  A    between atoms: _416  and  _418
REMARK  162  A    between atoms: _418  and  _419
REMARK  163  A    between atoms: _418  and  _421
REMARK  164  A    between atoms: _421  and  _422
REMARK  165  A    between atoms: _427  and  _429
REMARK  166  A    between atoms: _429  and  _430
REMARK  167  A    between atoms: _429  and  _432
REMARK  168  A    between atoms: _432  and  _433
REMARK  169  A    between atoms: _433  and  _434
REMARK  170  A    between atoms: _434  and  _435
REMARK  171  A    between atoms: _444  and  _446
REMARK  172  A    between atoms: _446  and  _447
REMARK  173  A    between atoms: _450  and  _452
REMARK  174  A    between atoms: _452  and  _453
REMARK  175  A    between atoms: _455  and  _457
REMARK  176  A    between atoms: _457  and  _458
REMARK  177  A    between atoms: _457  and  _460
REMARK  178  A    between atoms: _460  and  _461
REMARK  179  A    between atoms: _471  and  _473
REMARK  180  A    between atoms: _473  and  _474
REMARK  181  A    between atoms: _473  and  _476
REMARK  182  A    between atoms: _476  and  _477
REMARK  183  A    between atoms: _478  and  _480
REMARK  184  A    between atoms: _480  and  _481
REMARK  185  A    between atoms: _484  and  _486
REMARK  186  A    between atoms: _486  and  _487
REMARK  187  A    between atoms: _486  and  _489
REMARK  188  A    between atoms: _489  and  _490
REMARK  189  A    between atoms: _493  and  _495
REMARK  190  A    between atoms: _495  and  _496
REMARK  191  A    between atoms: _495  and  _498
REMARK  192  A    between atoms: _498  and  _499
REMARK  193  A    between atoms: _504  and  _505
REMARK  194  A    between atoms: _507  and  _509
REMARK  195  A    between atoms: _509  and  _510
REMARK  196  A    between atoms: _509  and  _512
REMARK  197  A    between atoms: _512  and  _513
REMARK  198  A    between atoms: _515  and  _517
REMARK  199  A    between atoms: _517  and  _518
REMARK  200  A    between atoms: _517  and  _520
REMARK  201  A    between atoms: _520  and  _521
REMARK  202  A    between atoms: _527  and  _529
REMARK  203  A    between atoms: _529  and  _530
REMARK  204  A    between atoms: _529  and  _532
REMARK  205  A    between atoms: _532  and  _533
REMARK  206  A    between atoms: _536  and  _538
REMARK  207  A    between atoms: _538  and  _539
REMARK  208  A    between atoms: _538  and  _541
REMARK  209  A    between atoms: _541  and  _542
REMARK  210  A    between atoms: _544  and  _546
REMARK  211  A    between atoms: _546  and  _547
REMARK  212  A    between atoms: _546  and  _549
REMARK  213  A    between atoms: _549  and  _550
REMARK  214  A    between atoms: _555  and  _557
REMARK  215  A    between atoms: _557  and  _558
REMARK  216  A    between atoms: _557  and  _560
REMARK  217  A    between atoms: _560  and  _561
REMARK  218  A    between atoms: _566  and  _568
REMARK  219  A    between atoms: _568  and  _569
REMARK  220  A    between atoms: _568  and  _571
REMARK  221  A    between atoms: _571  and  _572
REMARK  222  A    between atoms: _575  and  _577
REMARK  223  A    between atoms: _577  and  _578
REMARK  224  A    between atoms: _581  and  _583
REMARK  225  A    between atoms: _583  and  _584
REMARK  226  A    between atoms: _583  and  _586
REMARK  227  A    between atoms: _586  and  _587
REMARK  228  A    between atoms: _592  and  _593
REMARK  229  A    between atoms: _595  and  _597
REMARK  230  A    between atoms: _597  and  _598
REMARK  231  A    between atoms: _597  and  _600
REMARK  232  A    between atoms: _600  and  _601
REMARK  233  A    between atoms: _606  and  _607
REMARK  234  A    between atoms: _609  and  _611
REMARK  235  A    between atoms: _611  and  _612
REMARK  236  A    between atoms: _611  and  _614
REMARK  237  A    between atoms: _617  and  _619
REMARK  238  A    between atoms: _619  and  _620
REMARK  239  A    between atoms: _619  and  _622
REMARK  240  A    between atoms: _622  and  _623
REMARK  241  A    between atoms: _628  and  _630
REMARK  242  A    between atoms: _630  and  _631
REMARK  243  A    between atoms: _634  and  _636
REMARK  244  A    between atoms: _636  and  _637
REMARK  245  A    between atoms: _636  and  _639
REMARK  246  A    between atoms: _639  and  _640
REMARK  247  A    between atoms: _640  and  _641
REMARK  248  A    between atoms: _641  and  _642
REMARK  249  A    between atoms: _651  and  _653
REMARK  250  A    between atoms: _653  and  _654
REMARK  251  A    between atoms: _653  and  _656
REMARK  252  A    between atoms: _656  and  _657
REMARK  253  A    between atoms: _660  and  _662
REMARK  254  A    between atoms: _662  and  _663
REMARK  255  A    between atoms: _662  and  _665
REMARK  256  A    between atoms: _665  and  _666
REMARK  257  A    between atoms: _669  and  _671
REMARK  258  A    between atoms: _671  and  _672
REMARK  259  A    between atoms: _671  and  _674
REMARK  260  A    between atoms: _674  and  _675
REMARK                            x       y       z     vdW  Elec       q    Type
REMARK                         _______ _______ _______ _____ _____    ______ ____
ROOT
ATOM      1  O   HOH     1      -3.927  22.605  15.041  0.00  0.00    +0.000 OA
ENDROOT
TORSDOF 0
REMARK  Name = ../refined-set-2016/1b32/1b32_pocket.pdb
REMARK  260 active torsions:
REMARK  status: ('A' for Active; 'I' for Inactive)
REMARK    1  A    between atoms: _1  and  _3
REMARK    2  A    between atoms: _3  and  _4
REMARK    3  A    between atoms: _3  and  _6
REMARK    4  A    between atoms: _6  and  _7
REMARK    5  A    between atoms: _12  and  _14
REMARK    6  A    between atoms: _14  and  _15
REMARK    7  A    between atoms: _14  and  _17
REMARK    8  A    between atoms: _17  and  _18
REMARK    9  A    between atoms: _20  and  _22
REMARK   10  A    between atoms: _22  and  _23
REMARK   11  A    between atoms: _22  and  _25
REMARK   12  A    between atoms: _25  and  _26
REMARK   13  A    between atoms: _26  and  _27
REMARK   14  A    between atoms: _32  and  _34
REMARK   15  A    between atoms: _34  and  _35
REMARK   16  A    between atoms: _34  and  _37
REMARK   17  A    between atoms: _37  and  _38
REMARK   18  A    between atoms: _41  and  _43
REMARK   19  A    between atoms: _43  and  _44
REMARK   20  A    between atoms: _43  and  _46
REMARK   21  A    between atoms: _46  and  _47
REMARK   22  A    between atoms: _47  and  _48
REMARK   23  A    between atoms: _51  and  _53
REMARK   24  A    between atoms: _53  and  _54
REMARK   25  A    between atoms: _56  and  _58
REMARK   26  A    between atoms: _58  and  _59
REMARK   27  A    between atoms: _58  and  _61
REMARK   28  A    between atoms: _65  and  _66
REMARK   29  A    between atoms: _71  and  _73
REMARK   30  A    between atoms: _73  and  _74
REMARK   31  A    between atoms: _73  and  _76
REMARK   32  A    between atoms: _76  and  _77
REMARK   33  A    between atoms: _77  and  _78
REMARK   34  A    between atoms: _81  and  _83
REMARK   35  A    between atoms: _83  and  _84
REMARK   36  A    between atoms: _83  and  _86
REMARK   37  A    between atoms: _86  and  _87
REMARK   38  A    between atoms: _89  and  _91
REMARK   39  A    between atoms: _91  and  _92
REMARK   40  A    between atoms: _91  and  _94
REMARK   41  A    between atoms: _94  and  _95
REMARK   42  A    between atoms: _100  and  _102
REMARK   43  A    between atoms: _102  and  _103
REMARK   44  A    between atoms: _102  and  _105
REMARK   45  A    between atoms: _105  and  _106
REMARK   46  A    between atoms: _106  and  _107
REMARK   47  A    between atoms: _107  and  _108
REMARK   48  A    between atoms: _118  and  _119
REMARK   49  A    between atoms: _124  and  _126
REMARK   50  A    between atoms: _126  and  _127
REMARK   51  A    between atoms: _126  and  _129
REMARK   52  A    between atoms: _129  and  _130
REMARK   53  A    between atoms: _135  and  _136
REMARK   54  A    between atoms: _138  and  _140
REMARK   55  A    between atoms: _140  and  _141
REMARK   56  A    between atoms: _140  and  _143
REMARK   57  A    between atoms: _143  and  _144
REMARK   58  A    between atoms: _149  and  _150
REMARK   59  A    between atoms: _152  and  _154
REMARK   60  A    between atoms: _154  and  _155
REMARK   61  A    between atoms: _154  and  _157
REMARK   62  A    between atoms: _160  and  _162
REMARK   63  A    between atoms: _162  and  _163
REMARK   64  A    between atoms: _162  and  _165
REMARK   65  A    between atoms: _165  and  _166
REMARK   66  A    between atoms: _172  and  _173
REMARK   67  A    between atoms: _178  and  _180
REMARK   68  A    between atoms: _180  and  _181
REMARK   69  A    between atoms: _180  and  _183
REMARK   70  A    between atoms: _183  and  _184
REMARK   71  A    between atoms: _186  and  _188
REMARK   72  A    between atoms: _188  and  _189
REMARK   73  A    between atoms: _188  and  _191
REMARK   74  A    between atoms: _191  and  _192
REMARK   75  A    between atoms: _197  and  _198
REMARK   76  A    between atoms: _200  and  _202
REMARK   77  A    between atoms: _202  and  _203
REMARK   78  A    between atoms: _202  and  _205
REMARK   79  A    between atoms: _205  and  _206
REMARK   80  A    between atoms: _211  and  _213
REMARK   81  A    between atoms: _213  and  _214
REMARK   82  A    between atoms: _213  and  _216
REMARK   83  A    between atoms: _216  and  _217
REMARK   84  A    between atoms: _222  and  _224
REMARK   85  A    between atoms: _224  and  _225
REMARK   86  A    between atoms: _224  and  _227
REMARK   87  A    between atoms: _227  and  _228
REMARK   88  A    between atoms: _228  and  _229
REMARK   89  A    between atoms: _231  and  _233
REMARK   90  A    between atoms: _233  and  _234
REMARK   91  A    between atoms: _233  and  _236
REMARK   92  A    between atoms: _236  and  _237
REMARK   93  A    between atoms: _242  and  _243
REMARK   94  A    between atoms: _245  and  _247
REMARK   95  A    between atoms: _247  and  _248
REMARK   96  A    between atoms: _247  and  _250
REMARK   97  A    between atoms: _250  and  _251
REMARK   98  A    between atoms: _254  and  _256
REMARK   99  A    between atoms: _256  and  _257
REMARK  100  A    between atoms: _256  and  _259
REMARK  101  A    between atoms: _259  and  _260
REMARK  102  A    between atoms: _260  and  _477
REMARK  103  A    between atoms: _261  and  _263
REMARK  104  A    between atoms: _263  and  _264
REMARK  105  A    between atoms: _263  and  _266
REMARK  106  A    between atoms: _266  and  _267
REMARK  107  A    between atoms: _270  and  _272
REMARK  108  A    between atoms: _272  and  _273
REMARK  109  A    between atoms: _272  and  _275
REMARK  110  A    between atoms: _275  and  _276
REMARK  111  A    between atoms: _281  and  _282
REMARK  112  A    between atoms: _284  and  _286
REMARK  113  A    between atoms: _286  and  _287
REMARK  114  A    between atoms: _286  and  _289
REMARK  115  A    between atoms: _289  and  _290
REMARK  116  A    between atoms: _295  and  _296
REMARK  117  A    between atoms: _298  and  _300
REMARK  118  A    between atoms: _300  and  _301
REMARK  119  A    between atoms: _300  and  _303
REMARK  120  A    between atoms: _303  and  _304
REMARK  121  A    between atoms: _304  and  _305
REMARK  122  A    between atoms: _308  and  _310
REMARK  123  A    between atoms: _310  and  _311
REMARK  124  A    between atoms: _310  and  _313
REMARK  125  A    between atoms: _313  and  _314
REMARK  126  A    between atoms: _319  and  _320
REMARK  127  A    between atoms: _322  and  _324
REMARK  128  A    between atoms: _324  and  _325
REMARK  129  A    between atoms: _324  and  _327
REMARK  130  A    between atoms: _327  and  _328
REMARK  131  A    between atoms: _333  and  _335
REMARK  132  A    between atoms: _335  and  _336
REMARK  133  A    between atoms: _335  and  _338
REMARK  134  A    between atoms: _338  and  _339
REMARK  135  A    between atoms: _342  and  _344
REMARK  136  A    between atoms: _344  and  _345
REMARK  137  A    between atoms: _344  and  _347
REMARK  138  A    between atoms: _347  and  _348
REMARK  139  A    between atoms: _353  and  _355
REMARK  140  A    between atoms: _355  and  _356
REMARK  141  A    between atoms: _355  and  _358
REMARK  142  A    between atoms: _358  and  _359
REMARK  143  A    between atoms: _369  and  _371
REMARK  144  A    between atoms: _371  and  _372
REMARK  145  A    between atoms: _371  and  _374
REMARK  146  A    between atoms: _374  and  _375
REMARK  147  A    between atoms: _381  and  _383
REMARK  148  A    between atoms: _383  and  _384
REMARK  149  A    between atoms: _383  and  _386
REMARK  150  A    between atoms: _386  and  _387
REMARK  151  A    between atoms: _390  and  _392
REMARK  152  A    between atoms: _392  and  _393
REMARK  153  A    between atoms: _392  and  _395
REMARK  154  A    between atoms: _395  and  _396
REMARK  155  A    between atoms: _399  and  _401
REMARK  156  A    between atoms: _401  and  _402
REMARK  157  A    between atoms: _401  and  _404
REMARK  158  A    between atoms: _404  and  _405
REMARK  159  A    between atoms: _405  and  _406
REMARK  160  A    between atoms: _406  and  _407
REMARK  161  A    between atoms: _416  and  _418
REMARK  162  A    between atoms: _418  and  _419
REMARK  163  A    between atoms: _418  and  _421
REMARK  164  A    between atoms: _421  and  _422
REMARK  165  A    between atoms: _427  and  _429
REMARK  166  A    between atoms: _429  and  _430
REMARK  167  A    between atoms: _429  and  _432
REMARK  168  A    between atoms: _432  and  _433
REMARK  169  A    between atoms: _433  and  _434
REMARK  170  A    between atoms: _434  and  _435
REMARK  171  A    between atoms: _444  and  _446
REMARK  172  A    between atoms: _446  and  _447
REMARK  173  A    between atoms: _450  and  _452
REMARK  174  A    between atoms: _452  and  _453
REMARK  175  A    between atoms: _455  and  _457
REMARK  176  A    between atoms: _457  and  _458
REMARK  177  A    between atoms: _457  and  _460
REMARK  178  A    between atoms: _460  and  _461
REMARK  179  A    between atoms: _471  and  _473
REMARK  180  A    between atoms: _473  and  _474
REMARK  181  A    between atoms: _473  and  _476
REMARK  182  A    between atoms: _476  and  _477
REMARK  183  A    between atoms: _478  and  _480
REMARK  184  A    between atoms: _480  and  _481
REMARK  185  A    between atoms: _484  and  _486
REMARK  186  A    between atoms: _486  and  _487
REMARK  187  A    between atoms: _486  and  _489
REMARK  188  A    between atoms: _489  and  _490
REMARK  189  A    between atoms: _493  and  _495
REMARK  190  A    between atoms: _495  and  _496
REMARK  191  A    between atoms: _495  and  _498
REMARK  192  A    between atoms: _498  and  _499
REMARK  193  A    between atoms: _504  and  _505
REMARK  194  A    between atoms: _507  and  _509
REMARK  195  A    between atoms: _509  and  _510
REMARK  196  A    between atoms: _509  and  _512
REMARK  197  A    between atoms: _512  and  _513
REMARK  198  A    between atoms: _515  and  _517
REMARK  199  A    between atoms: _517  and  _518
REMARK  200  A    between atoms: _517  and  _520
REMARK  201  A    between atoms: _520  and  _521
REMARK  202  A    between atoms: _527  and  _529
REMARK  203  A    between atoms: _529  and  _530
REMARK  204  A    between atoms: _529  and  _532
REMARK  205  A    between atoms: _532  and  _533
REMARK  206  A    between atoms: _536  and  _538
REMARK  207  A    between atoms: _538  and  _539
REMARK  208  A    between atoms: _538  and  _541
REMARK  209  A    between atoms: _541  and  _542
REMARK  210  A    between atoms: _544  and  _546
REMARK  211  A    between atoms: _546  and  _547
REMARK  212  A    between atoms: _546  and  _549
REMARK  213  A    between atoms: _549  and  _550
REMARK  214  A    between atoms: _555  and  _557
REMARK  215  A    between atoms: _557  and  _558
REMARK  216  A    between atoms: _557  and  _560
REMARK  217  A    between atoms: _560  and  _561
REMARK  218  A    between atoms: _566  and  _568
REMARK  219  A    between atoms: _568  and  _569
REMARK  220  A    between atoms: _568  and  _571
REMARK  221  A    between atoms: _571  and  _572
REMARK  222  A    between atoms: _575  and  _577
REMARK  223  A    between atoms: _577  and  _578
REMARK  224  A    between atoms: _581  and  _583
REMARK  225  A    between atoms: _583  and  _584
REMARK  226  A    between atoms: _583  and  _586
REMARK  227  A    between atoms: _586  and  _587
REMARK  228  A    between atoms: _592  and  _593
REMARK  229  A    between atoms: _595  and  _597
REMARK  230  A    between atoms: _597  and  _598
REMARK  231  A    between atoms: _597  and  _600
REMARK  232  A    between atoms: _600  and  _601
REMARK  233  A    between atoms: _606  and  _607
REMARK  234  A    between atoms: _609  and  _611
REMARK  235  A    between atoms: _611  and  _612
REMARK  236  A    between atoms: _611  and  _614
REMARK  237  A    between atoms: _617  and  _619
REMARK  238  A    between atoms: _619  and  _620
REMARK  239  A    between atoms: _619  and  _622
REMARK  240  A    between atoms: _622  and  _623
REMARK  241  A    between atoms: _628  and  _630
REMARK  242  A    between atoms: _630  and  _631
REMARK  243  A    between atoms: _634  and  _636
REMARK  244  A    between atoms: _636  and  _637
REMARK  245  A    between atoms: _636  and  _639
REMARK  246  A    between atoms: _639  and  _640
REMARK  247  A    between atoms: _640  and  _641
REMARK  248  A    between atoms: _641  and  _642
REMARK  249  A    between atoms: _651  and  _653
REMARK  250  A    between atoms: _653  and  _654
REMARK  251  A    between atoms: _653  and  _656
REMARK  252  A    between atoms: _656  and  _657
REMARK  253  A    between atoms: _660  and  _662
REMARK  254  A    between atoms: _662  and  _663
REMARK  255  A    between atoms: _662  and  _665
REMARK  256  A    between atoms: _665  and  _666
REMARK  257  A    between atoms: _669  and  _671
REMARK  258  A    between atoms: _671  and  _672
REMARK  259  A    between atoms: _671  and  _674
REMARK  260  A    between atoms: _674  and  _675
REMARK                            x       y       z     vdW  Elec       q    Type
REMARK                         _______ _______ _______ _____ _____    ______ ____
ROOT
ATOM      1  O   HOH     1       1.587  21.784  18.944  0.00  0.00    +0.000 OA
ENDROOT
TORSDOF 0
REMARK  Name = ../refined-set-2016/1b32/1b32_pocket.pdb
REMARK  260 active torsions:
REMARK  status: ('A' for Active; 'I' for Inactive)
REMARK    1  A    between atoms: _1  and  _3
REMARK    2  A    between atoms: _3  and  _4
REMARK    3  A    between atoms: _3  and  _6
REMARK    4  A    between atoms: _6  and  _7
REMARK    5  A    between atoms: _12  and  _14
REMARK    6  A    between atoms: _14  and  _15
REMARK    7  A    between atoms: _14  and  _17
REMARK    8  A    between atoms: _17  and  _18
REMARK    9  A    between atoms: _20  and  _22
REMARK   10  A    between atoms: _22  and  _23
REMARK   11  A    between atoms: _22  and  _25
REMARK   12  A    between atoms: _25  and  _26
REMARK   13  A    between atoms: _26  and  _27
REMARK   14  A    between atoms: _32  and  _34
REMARK   15  A    between atoms: _34  and  _35
REMARK   16  A    between atoms: _34  and  _37
REMARK   17  A    between atoms: _37  and  _38
REMARK   18  A    between atoms: _41  and  _43
REMARK   19  A    between atoms: _43  and  _44
REMARK   20  A    between atoms: _43  and  _46
REMARK   21  A    between atoms: _46  and  _47
REMARK   22  A    between atoms: _47  and  _48
REMARK   23  A    between atoms: _51  and  _53
REMARK   24  A    between atoms: _53  and  _54
REMARK   25  A    between atoms: _56  and  _58
REMARK   26  A    between atoms: _58  and  _59
REMARK   27  A    between atoms: _58  and  _61
REMARK   28  A    between atoms: _65  and  _66
REMARK   29  A    between atoms: _71  and  _73
REMARK   30  A    between atoms: _73  and  _74
REMARK   31  A    between atoms: _73  and  _76
REMARK   32  A    between atoms: _76  and  _77
REMARK   33  A    between atoms: _77  and  _78
REMARK   34  A    between atoms: _81  and  _83
REMARK   35  A    between atoms: _83  and  _84
REMARK   36  A    between atoms: _83  and  _86
REMARK   37  A    between atoms: _86  and  _87
REMARK   38  A    between atoms: _89  and  _91
REMARK   39  A    between atoms: _91  and  _92
REMARK   40  A    between atoms: _91  and  _94
REMARK   41  A    between atoms: _94  and  _95
REMARK   42  A    between atoms: _100  and  _102
REMARK   43  A    between atoms: _102  and  _103
REMARK   44  A    between atoms: _102  and  _105
REMARK   45  A    between atoms: _105  and  _106
REMARK   46  A    between atoms: _106  and  _107
REMARK   47  A    between atoms: _107  and  _108
REMARK   48  A    between atoms: _118  and  _119
REMARK   49  A    between atoms: _124  and  _126
REMARK   50  A    between atoms: _126  and  _127
REMARK   51  A    between atoms: _126  and  _129
REMARK   52  A    between atoms: _129  and  _130
REMARK   53  A    between atoms: _135  and  _136
REMARK   54  A    between atoms: _138  and  _140
REMARK   55  A    between atoms: _140  and  _141
REMARK   56  A    between atoms: _140  and  _143
REMARK   57  A    between atoms: _143  and  _144
REMARK   58  A    between atoms: _149  and  _150
REMARK   59  A    between atoms: _152  and  _154
REMARK   60  A    between atoms: _154  and  _155
REMARK   61  A    between atoms: _154  and  _157
REMARK   62  A    between atoms: _160  and  _162
REMARK   63  A    between atoms: _162  and  _163
REMARK   64  A    between atoms: _162  and  _165
REMARK   65  A    between atoms: _165  and  _166
REMARK   66  A    between atoms: _172  and  _173
REMARK   67  A    between atoms: _178  and  _180
REMARK   68  A    between atoms: _180  and  _181
REMARK   69  A    between atoms: _180  and  _183
REMARK   70  A    between atoms: _183  and  _184
REMARK   71  A    between atoms: _186  and  _188
REMARK   72  A    between atoms: _188  and  _189
REMARK   73  A    between atoms: _188  and  _191
REMARK   74  A    between atoms: _191  and  _192
REMARK   75  A    between atoms: _197  and  _198
REMARK   76  A    between atoms: _200  and  _202
REMARK   77  A    between atoms: _202  and  _203
REMARK   78  A    between atoms: _202  and  _205
REMARK   79  A    between atoms: _205  and  _206
REMARK   80  A    between atoms: _211  and  _213
REMARK   81  A    between atoms: _213  and  _214
REMARK   82  A    between atoms: _213  and  _216
REMARK   83  A    between atoms: _216  and  _217
REMARK   84  A    between atoms: _222  and  _224
REMARK   85  A    between atoms: _224  and  _225
REMARK   86  A    between atoms: _224  and  _227
REMARK   87  A    between atoms: _227  and  _228
REMARK   88  A    between atoms: _228  and  _229
REMARK   89  A    between atoms: _231  and  _233
REMARK   90  A    between atoms: _233  and  _234
REMARK   91  A    between atoms: _233  and  _236
REMARK   92  A    between atoms: _236  and  _237
REMARK   93  A    between atoms: _242  and  _243
REMARK   94  A    between atoms: _245  and  _247
REMARK   95  A    between atoms: _247  and  _248
REMARK   96  A    between atoms: _247  and  _250
REMARK   97  A    between atoms: _250  and  _251
REMARK   98  A    between atoms: _254  and  _256
REMARK   99  A    between atoms: _256  and  _257
REMARK  100  A    between atoms: _256  and  _259
REMARK  101  A    between atoms: _259  and  _260
REMARK  102  A    between atoms: _260  and  _477
REMARK  103  A    between atoms: _261  and  _263
REMARK  104  A    between atoms: _263  and  _264
REMARK  105  A    between atoms: _263  and  _266
REMARK  106  A    between atoms: _266  and  _267
REMARK  107  A    between atoms: _270  and  _272
REMARK  108  A    between atoms: _272  and  _273
REMARK  109  A    between atoms: _272  and  _275
REMARK  110  A    between atoms: _275  and  _276
REMARK  111  A    between atoms: _281  and  _282
REMARK  112  A    between atoms: _284  and  _286
REMARK  113  A    between atoms: _286  and  _287
REMARK  114  A    between atoms: _286  and  _289
REMARK  115  A    between atoms: _289  and  _290
REMARK  116  A    between atoms: _295  and  _296
REMARK  117  A    between atoms: _298  and  _300
REMARK  118  A    between atoms: _300  and  _301
REMARK  119  A    between atoms: _300  and  _303
REMARK  120  A    between atoms: _303  and  _304
REMARK  121  A    between atoms: _304  and  _305
REMARK  122  A    between atoms: _308  and  _310
REMARK  123  A    between atoms: _310  and  _311
REMARK  124  A    between atoms: _310  and  _313
REMARK  125  A    between atoms: _313  and  _314
REMARK  126  A    between atoms: _319  and  _320
REMARK  127  A    between atoms: _322  and  _324
REMARK  128  A    between atoms: _324  and  _325
REMARK  129  A    between atoms: _324  and  _327
REMARK  130  A    between atoms: _327  and  _328
REMARK  131  A    between atoms: _333  and  _335
REMARK  132  A    between atoms: _335  and  _336
REMARK  133  A    between atoms: _335  and  _338
REMARK  134  A    between atoms: _338  and  _339
REMARK  135  A    between atoms: _342  and  _344
REMARK  136  A    between atoms: _344  and  _345
REMARK  137  A    between atoms: _344  and  _347
REMARK  138  A    between atoms: _347  and  _348
REMARK  139  A    between atoms: _353  and  _355
REMARK  140  A    between atoms: _355  and  _356
REMARK  141  A    between atoms: _355  and  _358
REMARK  142  A    between atoms: _358  and  _359
REMARK  143  A    between atoms: _369  and  _371
REMARK  144  A    between atoms: _371  and  _372
REMARK  145  A    between atoms: _371  and  _374
REMARK  146  A    between atoms: _374  and  _375
REMARK  147  A    between atoms: _381  and  _383
REMARK  148  A    between atoms: _383  and  _384
REMARK  149  A    between atoms: _383  and  _386
REMARK  150  A    between atoms: _386  and  _387
REMARK  151  A    between atoms: _390  and  _392
REMARK  152  A    between atoms: _392  and  _393
REMARK  153  A    between atoms: _392  and  _395
REMARK  154  A    between atoms: _395  and  _396
REMARK  155  A    between atoms: _399  and  _401
REMARK  156  A    between atoms: _401  and  _402
REMARK  157  A    between atoms: _401  and  _404
REMARK  158  A    between atoms: _404  and  _405
REMARK  159  A    between atoms: _405  and  _406
REMARK  160  A    between atoms: _406  and  _407
REMARK  161  A    between atoms: _416  and  _418
REMARK  162  A    between atoms: _418  and  _419
REMARK  163  A    between atoms: _418  and  _421
REMARK  164  A    between atoms: _421  and  _422
REMARK  165  A    between atoms: _427  and  _429
REMARK  166  A    between atoms: _429  and  _430
REMARK  167  A    between atoms: _429  and  _432
REMARK  168  A    between atoms: _432  and  _433
REMARK  169  A    between atoms: _433  and  _434
REMARK  170  A    between atoms: _434  and  _435
REMARK  171  A    between atoms: _444  and  _446
REMARK  172  A    between atoms: _446  and  _447
REMARK  173  A    between atoms: _450  and  _452
REMARK  174  A    between atoms: _452  and  _453
REMARK  175  A    between atoms: _455  and  _457
REMARK  176  A    between atoms: _457  and  _458
REMARK  177  A    between atoms: _457  and  _460
REMARK  178  A    between atoms: _460  and  _461
REMARK  179  A    between atoms: _471  and  _473
REMARK  180  A    between atoms: _473  and  _474
REMARK  181  A    between atoms: _473  and  _476
REMARK  182  A    between atoms: _476  and  _477
REMARK  183  A    between atoms: _478  and  _480
REMARK  184  A    between atoms: _480  and  _481
REMARK  185  A    between atoms: _484  and  _486
REMARK  186  A    between atoms: _486  and  _487
REMARK  187  A    between atoms: _486  and  _489
REMARK  188  A    between atoms: _489  and  _490
REMARK  189  A    between atoms: _493  and  _495
REMARK  190  A    between atoms: _495  and  _496
REMARK  191  A    between atoms: _495  and  _498
REMARK  192  A    between atoms: _498  and  _499
REMARK  193  A    between atoms: _504  and  _505
REMARK  194  A    between atoms: _507  and  _509
REMARK  195  A    between atoms: _509  and  _510
REMARK  196  A    between atoms: _509  and  _512
REMARK  197  A    between atoms: _512  and  _513
REMARK  198  A    between atoms: _515  and  _517
REMARK  199  A    between atoms: _517  and  _518
REMARK  200  A    between atoms: _517  and  _520
REMARK  201  A    between atoms: _520  and  _521
REMARK  202  A    between atoms: _527  and  _529
REMARK  203  A    between atoms: _529  and  _530
REMARK  204  A    between atoms: _529  and  _532
REMARK  205  A    between atoms: _532  and  _533
REMARK  206  A    between atoms: _536  and  _538
REMARK  207  A    between atoms: _538  and  _539
REMARK  208  A    between atoms: _538  and  _541
REMARK  209  A    between atoms: _541  and  _542
REMARK  210  A    between atoms: _544  and  _546
REMARK  211  A    between atoms: _546  and  _547
REMARK  212  A    between atoms: _546  and  _549
REMARK  213  A    between atoms: _549  and  _550
REMARK  214  A    between atoms: _555  and  _557
REMARK  215  A    between atoms: _557  and  _558
REMARK  216  A    between atoms: _557  and  _560
REMARK  217  A    between atoms: _560  and  _561
REMARK  218  A    between atoms: _566  and  _568
REMARK  219  A    between atoms: _568  and  _569
REMARK  220  A    between atoms: _568  and  _571
REMARK  221  A    between atoms: _571  and  _572
REMARK  222  A    between atoms: _575  and  _577
REMARK  223  A    between atoms: _577  and  _578
REMARK  224  A    between atoms: _581  and  _583
REMARK  225  A    between atoms: _583  and  _584
REMARK  226  A    between atoms: _583  and  _586
REMARK  227  A    between atoms: _586  and  _587
REMARK  228  A    between atoms: _592  and  _593
REMARK  229  A    between atoms: _595  and  _597
REMARK  230  A    between atoms: _597  and  _598
REMARK  231  A    between atoms: _597  and  _600
REMARK  232  A    between atoms: _600  and  _601
REMARK  233  A    between atoms: _606  and  _607
REMARK  234  A    between atoms: _609  and  _611
REMARK  235  A    between atoms: _611  and  _612
REMARK  236  A    between atoms: _611  and  _614
REMARK  237  A    between atoms: _617  and  _619
REMARK  238  A    between atoms: _619  and  _620
REMARK  239  A    between atoms: _619  and  _622
REMARK  240  A    between atoms: _622  and  _623
REMARK  241  A    between atoms: _628  and  _630
REMARK  242  A    between atoms: _630  and  _631
REMARK  243  A    between atoms: _634  and  _636
REMARK  244  A    between atoms: _636  and  _637
REMARK  245  A    between atoms: _636  and  _639
REMARK  246  A    between atoms: _639  and  _640
REMARK  247  A    between atoms: _640  and  _641
REMARK  248  A    between atoms: _641  and  _642
REMARK  249  A    between atoms: _651  and  _653
REMARK  250  A    between atoms: _653  and  _654
REMARK  251  A    between atoms: _653  and  _656
REMARK  252  A    between atoms: _656  and  _657
REMARK  253  A    between atoms: _660  and  _662
REMARK  254  A    between atoms: _662  and  _663
REMARK  255  A    between atoms: _662  and  _665
REMARK  256  A    between atoms: _665  and  _666
REMARK  257  A    between atoms: _669  and  _671
REMARK  258  A    between atoms: _671  and  _672
REMARK  259  A    between atoms: _671  and  _674
REMARK  260  A    between atoms: _674  and  _675
REMARK                            x       y       z     vdW  Elec       q    Type
REMARK                         _______ _______ _______ _____ _____    ______ ____
ROOT
ATOM      1  O   HOH     1       8.578  12.952   9.741  0.00  0.00    +0.000 OA
ENDROOT
TORSDOF 0
