REMARK  Name = ../refined-set-2016/4ca5/4ca5_pocket.pdb
REMARK  300 active torsions:
REMARK  status: ('A' for Active; 'I' for Inactive)
REMARK    1  A    between atoms: _1  and  _3
REMARK    2  A    between atoms: _3  and  _4
REMARK    3  A    between atoms: _3  and  _6
REMARK    4  A    between atoms: _6  and  _7
REMARK    5  A    between atoms: _12  and  _14
REMARK    6  A    between atoms: _14  and  _15
REMARK    7  A    between atoms: _14  and  _17
REMARK    8  A    between atoms: _17  and  _18
REMARK    9  A    between atoms: _23  and  _25
REMARK   10  A    between atoms: _25  and  _26
REMARK   11  A    between atoms: _25  and  _28
REMARK   12  A    between atoms: _28  and  _29
REMARK   13  A    between atoms: _29  and  _30
REMARK   14  A    between atoms: _33  and  _35
REMARK   15  A    between atoms: _35  and  _36
REMARK   16  A    between atoms: _35  and  _38
REMARK   17  A    between atoms: _38  and  _39
REMARK   18  A    between atoms: _44  and  _45
REMARK   19  A    between atoms: _47  and  _49
REMARK   20  A    between atoms: _49  and  _50
REMARK   21  A    between atoms: _49  and  _52
REMARK   22  A    between atoms: _52  and  _53
REMARK   23  A    between atoms: _53  and  _54
REMARK   24  A    between atoms: _57  and  _59
REMARK   25  A    between atoms: _59  and  _60
REMARK   26  A    between atoms: _59  and  _62
REMARK   27  A    between atoms: _62  and  _63
REMARK   28  A    between atoms: _66  and  _68
REMARK   29  A    between atoms: _68  and  _69
REMARK   30  A    between atoms: _71  and  _73
REMARK   31  A    between atoms: _73  and  _74
REMARK   32  A    between atoms: _73  and  _76
REMARK   33  A    between atoms: _76  and  _77
REMARK   34  A    between atoms: _82  and  _84
REMARK   35  A    between atoms: _84  and  _85
REMARK   36  A    between atoms: _84  and  _87
REMARK   37  A    between atoms: _87  and  _88
REMARK   38  A    between atoms: _88  and  _89
REMARK   39  A    between atoms: _91  and  _93
REMARK   40  A    between atoms: _93  and  _94
REMARK   41  A    between atoms: _93  and  _96
REMARK   42  A    between atoms: _96  and  _97
REMARK   43  A    between atoms: _107  and  _109
REMARK   44  A    between atoms: _109  and  _110
REMARK   45  A    between atoms: _109  and  _112
REMARK   46  A    between atoms: _112  and  _113
REMARK   47  A    between atoms: _113  and  _114
REMARK   48  A    between atoms: _119  and  _121
REMARK   49  A    between atoms: _121  and  _122
REMARK   50  A    between atoms: _121  and  _124
REMARK   51  A    between atoms: _124  and  _125
REMARK   52  A    between atoms: _128  and  _130
REMARK   53  A    between atoms: _130  and  _131
REMARK   54  A    between atoms: _130  and  _133
REMARK   55  A    between atoms: _133  and  _134
REMARK   56  A    between atoms: _144  and  _146
REMARK   57  A    between atoms: _146  and  _147
REMARK   58  A    between atoms: _146  and  _149
REMARK   59  A    between atoms: _149  and  _150
REMARK   60  A    between atoms: _152  and  _154
REMARK   61  A    between atoms: _154  and  _155
REMARK   62  A    between atoms: _154  and  _157
REMARK   63  A    between atoms: _157  and  _158
REMARK   64  A    between atoms: _163  and  _165
REMARK   65  A    between atoms: _165  and  _166
REMARK   66  A    between atoms: _165  and  _168
REMARK   67  A    between atoms: _171  and  _173
REMARK   68  A    between atoms: _173  and  _174
REMARK   69  A    between atoms: _173  and  _176
REMARK   70  A    between atoms: _178  and  _180
REMARK   71  A    between atoms: _180  and  _181
REMARK   72  A    between atoms: _180  and  _183
REMARK   73  A    between atoms: _183  and  _184
REMARK   74  A    between atoms: _189  and  _191
REMARK   75  A    between atoms: _191  and  _192
REMARK   76  A    between atoms: _195  and  _197
REMARK   77  A    between atoms: _197  and  _198
REMARK   78  A    between atoms: _197  and  _200
REMARK   79  A    between atoms: _200  and  _201
REMARK   80  A    between atoms: _203  and  _205
REMARK   81  A    between atoms: _205  and  _206
REMARK   82  A    between atoms: _209  and  _211
REMARK   83  A    between atoms: _211  and  _212
REMARK   84  A    between atoms: _211  and  _214
REMARK   85  A    between atoms: _214  and  _215
REMARK   86  A    between atoms: _225  and  _227
REMARK   87  A    between atoms: _227  and  _228
REMARK   88  A    between atoms: _227  and  _230
REMARK   89  A    between atoms: _230  and  _231
REMARK   90  A    between atoms: _234  and  _236
REMARK   91  A    between atoms: _236  and  _237
REMARK   92  A    between atoms: _236  and  _239
REMARK   93  A    between atoms: _239  and  _240
REMARK   94  A    between atoms: _245  and  _246
REMARK   95  A    between atoms: _248  and  _250
REMARK   96  A    between atoms: _250  and  _251
REMARK   97  A    between atoms: _250  and  _253
REMARK   98  A    between atoms: _253  and  _254
REMARK   99  A    between atoms: _254  and  _255
REMARK  100  A    between atoms: _255  and  _256
REMARK  101  A    between atoms: _265  and  _267
REMARK  102  A    between atoms: _267  and  _268
REMARK  103  A    between atoms: _267  and  _270
REMARK  104  A    between atoms: _270  and  _271
REMARK  105  A    between atoms: _274  and  _276
REMARK  106  A    between atoms: _276  and  _277
REMARK  107  A    between atoms: _276  and  _279
REMARK  108  A    between atoms: _279  and  _280
REMARK  109  A    between atoms: _280  and  _281
REMARK  110  A    between atoms: _281  and  _282
REMARK  111  A    between atoms: _282  and  _283
REMARK  112  A    between atoms: _287  and  _289
REMARK  113  A    between atoms: _289  and  _290
REMARK  114  A    between atoms: _289  and  _292
REMARK  115  A    between atoms: _292  and  _293
REMARK  116  A    between atoms: _293  and  _294
REMARK  117  A    between atoms: _299  and  _301
REMARK  118  A    between atoms: _301  and  _302
REMARK  119  A    between atoms: _301  and  _304
REMARK  120  A    between atoms: _304  and  _305
REMARK  121  A    between atoms: _310  and  _312
REMARK  122  A    between atoms: _312  and  _313
REMARK  123  A    between atoms: _312  and  _315
REMARK  124  A    between atoms: _315  and  _316
REMARK  125  A    between atoms: _319  and  _321
REMARK  126  A    between atoms: _321  and  _322
REMARK  127  A    between atoms: _321  and  _324
REMARK  128  A    between atoms: _324  and  _325
REMARK  129  A    between atoms: _325  and  _326
REMARK  130  A    between atoms: _329  and  _331
REMARK  131  A    between atoms: _331  and  _332
REMARK  132  A    between atoms: _331  and  _334
REMARK  133  A    between atoms: _334  and  _335
REMARK  134  A    between atoms: _338  and  _340
REMARK  135  A    between atoms: _340  and  _341
REMARK  136  A    between atoms: _340  and  _343
REMARK  137  A    between atoms: _346  and  _348
REMARK  138  A    between atoms: _348  and  _349
REMARK  139  A    between atoms: _348  and  _351
REMARK  140  A    between atoms: _354  and  _356
REMARK  141  A    between atoms: _356  and  _357
REMARK  142  A    between atoms: _360  and  _362
REMARK  143  A    between atoms: _362  and  _363
REMARK  144  A    between atoms: _362  and  _365
REMARK  145  A    between atoms: _365  and  _366
REMARK  146  A    between atoms: _371  and  _373
REMARK  147  A    between atoms: _384  and  _387
REMARK  148  A    between atoms: _387  and  _388
REMARK  149  A    between atoms: _388  and  _389
REMARK  150  A    between atoms: _394  and  _397
REMARK  151  A    between atoms: _397  and  _398
REMARK  152  A    between atoms: _398  and  _399
REMARK  153  A    between atoms: _408  and  _409
REMARK  154  A    between atoms: _417  and  _419
REMARK  155  A    between atoms: _419  and  _420
REMARK  156  A    between atoms: _419  and  _422
REMARK  157  A    between atoms: _422  and  _423
REMARK  158  A    between atoms: _426  and  _428
REMARK  159  A    between atoms: _428  and  _429
REMARK  160  A    between atoms: _428  and  _431
REMARK  161  A    between atoms: _431  and  _432
REMARK  162  A    between atoms: _437  and  _438
REMARK  163  A    between atoms: _440  and  _442
REMARK  164  A    between atoms: _442  and  _443
REMARK  165  A    between atoms: _442  and  _445
REMARK  166  A    between atoms: _445  and  _446
REMARK  167  A    between atoms: _452  and  _454
REMARK  168  A    between atoms: _454  and  _455
REMARK  169  A    between atoms: _454  and  _457
REMARK  170  A    between atoms: _457  and  _458
REMARK  171  A    between atoms: _463  and  _464
REMARK  172  A    between atoms: _466  and  _468
REMARK  173  A    between atoms: _468  and  _469
REMARK  174  A    between atoms: _468  and  _471
REMARK  175  A    between atoms: _471  and  _472
REMARK  176  A    between atoms: _472  and  _473
REMARK  177  A    between atoms: _473  and  _474
REMARK  178  A    between atoms: _483  and  _485
REMARK  179  A    between atoms: _485  and  _486
REMARK  180  A    between atoms: _485  and  _488
REMARK  181  A    between atoms: _488  and  _489
REMARK  182  A    between atoms: _489  and  _490
REMARK  183  A    between atoms: _493  and  _495
REMARK  184  A    between atoms: _495  and  _496
REMARK  185  A    between atoms: _498  and  _500
REMARK  186  A    between atoms: _500  and  _501
REMARK  187  A    between atoms: _500  and  _503
REMARK  188  A    between atoms: _503  and  _504
REMARK  189  A    between atoms: _510  and  _511
REMARK  190  A    between atoms: _516  and  _518
REMARK  191  A    between atoms: _518  and  _519
REMARK  192  A    between atoms: _521  and  _523
REMARK  193  A    between atoms: _523  and  _524
REMARK  194  A    between atoms: _523  and  _526
REMARK  195  A    between atoms: _526  and  _527
REMARK  196  A    between atoms: _533  and  _535
REMARK  197  A    between atoms: _535  and  _536
REMARK  198  A    between atoms: _535  and  _538
REMARK  199  A    between atoms: _538  and  _539
REMARK  200  A    between atoms: _544  and  _546
REMARK  201  A    between atoms: _546  and  _547
REMARK  202  A    between atoms: _546  and  _549
REMARK  203  A    between atoms: _549  and  _550
REMARK  204  A    between atoms: _550  and  _551
REMARK  205  A    between atoms: _551  and  _552
REMARK  206  A    between atoms: _552  and  ZN_793
REMARK  207  A    between atoms: _554  and  _556
REMARK  208  A    between atoms: _556  and  _557
REMARK  209  A    between atoms: _560  and  _562
REMARK  210  A    between atoms: _562  and  _563
REMARK  211  A    between atoms: _562  and  _565
REMARK  212  A    between atoms: _565  and  _566
REMARK  213  A    between atoms: _569  and  _571
REMARK  214  A    between atoms: _571  and  _572
REMARK  215  A    between atoms: _575  and  _577
REMARK  216  A    between atoms: _577  and  _578
REMARK  217  A    between atoms: _577  and  _580
REMARK  218  A    between atoms: _580  and  _581
REMARK  219  A    between atoms: _584  and  _586
REMARK  220  A    between atoms: _586  and  _587
REMARK  221  A    between atoms: _586  and  _589
REMARK  222  A    between atoms: _589  and  _590
REMARK  223  A    between atoms: _590  and  _591
REMARK  224  A    between atoms: _591  and  _592
REMARK  225  A    between atoms: _592  and  _593
REMARK  226  A    between atoms: _597  and  _599
REMARK  227  A    between atoms: _599  and  _600
REMARK  228  A    between atoms: _599  and  _602
REMARK  229  A    between atoms: _602  and  _603
REMARK  230  A    between atoms: _609  and  _611
REMARK  231  A    between atoms: _611  and  _612
REMARK  232  A    between atoms: _611  and  _614
REMARK  233  A    between atoms: _614  and  _615
REMARK  234  A    between atoms: _621  and  _623
REMARK  235  A    between atoms: _623  and  _624
REMARK  236  A    between atoms: _623  and  _626
REMARK  237  A    between atoms: _626  and  _627
REMARK  238  A    between atoms: _629  and  _631
REMARK  239  A    between atoms: _631  and  _632
REMARK  240  A    between atoms: _631  and  _634
REMARK  241  A    between atoms: _637  and  _639
REMARK  242  A    between atoms: _639  and  _640
REMARK  243  A    between atoms: _639  and  _642
REMARK  244  A    between atoms: _642  and  _643
REMARK  245  A    between atoms: _643  and  _644
REMARK  246  A    between atoms: _644  and  _645
REMARK  247  A    between atoms: _645  and  _646
REMARK  248  A    between atoms: _650  and  _652
REMARK  249  A    between atoms: _652  and  _653
REMARK  250  A    between atoms: _652  and  _655
REMARK  251  A    between atoms: _655  and  _656
REMARK  252  A    between atoms: _662  and  _664
REMARK  253  A    between atoms: _664  and  _665
REMARK  254  A    between atoms: _664  and  _667
REMARK  255  A    between atoms: _667  and  _668
REMARK  256  A    between atoms: _673  and  _675
REMARK  257  A    between atoms: _675  and  _676
REMARK  258  A    between atoms: _675  and  _678
REMARK  259  A    between atoms: _678  and  _679
REMARK  260  A    between atoms: _681  and  _683
REMARK  261  A    between atoms: _683  and  _684
REMARK  262  A    between atoms: _683  and  _686
REMARK  263  A    between atoms: _686  and  _687
REMARK  264  A    between atoms: _689  and  _691
REMARK  265  A    between atoms: _691  and  _692
REMARK  266  A    between atoms: _691  and  _694
REMARK  267  A    between atoms: _698  and  _699
REMARK  268  A    between atoms: _704  and  _706
REMARK  269  A    between atoms: _706  and  _707
REMARK  270  A    between atoms: _706  and  _709
REMARK  271  A    between atoms: _709  and  _710
REMARK  272  A    between atoms: _715  and  _716
REMARK  273  A    between atoms: _718  and  _720
REMARK  274  A    between atoms: _720  and  _721
REMARK  275  A    between atoms: _720  and  _723
REMARK  276  A    between atoms: _723  and  _724
REMARK  277  A    between atoms: _724  and  _725
REMARK  278  A    between atoms: _725  and  _726
REMARK  279  A    between atoms: _735  and  _737
REMARK  280  A    between atoms: _737  and  _738
REMARK  281  A    between atoms: _737  and  _740
REMARK  282  A    between atoms: _740  and  _741
REMARK  283  A    between atoms: _746  and  _747
REMARK  284  A    between atoms: _749  and  _751
REMARK  285  A    between atoms: _751  and  _752
REMARK  286  A    between atoms: _751  and  _754
REMARK  287  A    between atoms: _754  and  _755
REMARK  288  A    between atoms: _761  and  _763
REMARK  289  A    between atoms: _763  and  _764
REMARK  290  A    between atoms: _763  and  _766
REMARK  291  A    between atoms: _766  and  _767
REMARK  292  A    between atoms: _769  and  _771
REMARK  293  A    between atoms: _771  and  _772
REMARK  294  A    between atoms: _771  and  _774
REMARK  295  A    between atoms: _774  and  _775
REMARK  296  A    between atoms: _781  and  _783
REMARK  297  A    between atoms: _783  and  _784
REMARK  298  A    between atoms: _783  and  _786
REMARK  299  A    between atoms: _786  and  _787
REMARK  300  A    between atoms: _787  and  _788
REMARK                            x       y       z     vdW  Elec       q    Type
REMARK                         _______ _______ _______ _____ _____    ______ ____
ROOT
ATOM      1  CB  ASN A   1       8.941  -7.011  -5.412  0.00  0.00    +0.110 C 
ENDROOT
BRANCH   1   2
ATOM      2  CG  ASN A   1       8.281  -7.194  -6.769  0.00  0.00    +0.221 C 
ATOM      3  OD1 ASN A   1       7.582  -8.181  -7.028  0.00  0.00    -0.275 OA
ATOM      4  ND2 ASN A   1       8.493  -6.224  -7.642  0.00  0.00    -0.329 N 
ATOM      5 HD21 ASN A   1       9.088  -5.412  -7.382  0.00  0.00    +0.145 HD
ATOM      6 HD22 ASN A   1       8.065  -6.273  -8.588  0.00  0.00    +0.145 HD
ENDBRANCH   1   2
BRANCH   1   7
ATOM      7  CA  ASN A   1       8.962  -8.298  -4.571  0.00  0.00    +0.142 C 
BRANCH   7   8
ATOM      8  N   ASN A   1       9.215  -7.980  -3.160  0.00  0.00    -0.239 NA
ATOM      9  H   ASN A   1       9.464  -7.008  -2.888  0.00  0.00    +0.142 HD
ENDBRANCH   7   8
BRANCH   7  10
ATOM     10  C   ASN A   1      10.003  -9.309  -5.074  0.00  0.00    +0.225 C 
ATOM     11  O   ASN A   1       9.654 -10.319  -5.682  0.00  0.00    -0.287 OA
ENDBRANCH   7  10
ENDBRANCH   1   7
TORSDOF 4
REMARK  Name = ../refined-set-2016/4ca5/4ca5_pocket.pdb
REMARK  300 active torsions:
REMARK  status: ('A' for Active; 'I' for Inactive)
REMARK    1  A    between atoms: _1  and  _3
REMARK    2  A    between atoms: _3  and  _4
REMARK    3  A    between atoms: _3  and  _6
REMARK    4  A    between atoms: _6  and  _7
REMARK    5  A    between atoms: _12  and  _14
REMARK    6  A    between atoms: _14  and  _15
REMARK    7  A    between atoms: _14  and  _17
REMARK    8  A    between atoms: _17  and  _18
REMARK    9  A    between atoms: _23  and  _25
REMARK   10  A    between atoms: _25  and  _26
REMARK   11  A    between atoms: _25  and  _28
REMARK   12  A    between atoms: _28  and  _29
REMARK   13  A    between atoms: _29  and  _30
REMARK   14  A    between atoms: _33  and  _35
REMARK   15  A    between atoms: _35  and  _36
REMARK   16  A    between atoms: _35  and  _38
REMARK   17  A    between atoms: _38  and  _39
REMARK   18  A    between atoms: _44  and  _45
REMARK   19  A    between atoms: _47  and  _49
REMARK   20  A    between atoms: _49  and  _50
REMARK   21  A    between atoms: _49  and  _52
REMARK   22  A    between atoms: _52  and  _53
REMARK   23  A    between atoms: _53  and  _54
REMARK   24  A    between atoms: _57  and  _59
REMARK   25  A    between atoms: _59  and  _60
REMARK   26  A    between atoms: _59  and  _62
REMARK   27  A    between atoms: _62  and  _63
REMARK   28  A    between atoms: _66  and  _68
REMARK   29  A    between atoms: _68  and  _69
REMARK   30  A    between atoms: _71  and  _73
REMARK   31  A    between atoms: _73  and  _74
REMARK   32  A    between atoms: _73  and  _76
REMARK   33  A    between atoms: _76  and  _77
REMARK   34  A    between atoms: _82  and  _84
REMARK   35  A    between atoms: _84  and  _85
REMARK   36  A    between atoms: _84  and  _87
REMARK   37  A    between atoms: _87  and  _88
REMARK   38  A    between atoms: _88  and  _89
REMARK   39  A    between atoms: _91  and  _93
REMARK   40  A    between atoms: _93  and  _94
REMARK   41  A    between atoms: _93  and  _96
REMARK   42  A    between atoms: _96  and  _97
REMARK   43  A    between atoms: _107  and  _109
REMARK   44  A    between atoms: _109  and  _110
REMARK   45  A    between atoms: _109  and  _112
REMARK   46  A    between atoms: _112  and  _113
REMARK   47  A    between atoms: _113  and  _114
REMARK   48  A    between atoms: _119  and  _121
REMARK   49  A    between atoms: _121  and  _122
REMARK   50  A    between atoms: _121  and  _124
REMARK   51  A    between atoms: _124  and  _125
REMARK   52  A    between atoms: _128  and  _130
REMARK   53  A    between atoms: _130  and  _131
REMARK   54  A    between atoms: _130  and  _133
REMARK   55  A    between atoms: _133  and  _134
REMARK   56  A    between atoms: _144  and  _146
REMARK   57  A    between atoms: _146  and  _147
REMARK   58  A    between atoms: _146  and  _149
REMARK   59  A    between atoms: _149  and  _150
REMARK   60  A    between atoms: _152  and  _154
REMARK   61  A    between atoms: _154  and  _155
REMARK   62  A    between atoms: _154  and  _157
REMARK   63  A    between atoms: _157  and  _158
REMARK   64  A    between atoms: _163  and  _165
REMARK   65  A    between atoms: _165  and  _166
REMARK   66  A    between atoms: _165  and  _168
REMARK   67  A    between atoms: _171  and  _173
REMARK   68  A    between atoms: _173  and  _174
REMARK   69  A    between atoms: _173  and  _176
REMARK   70  A    between atoms: _178  and  _180
REMARK   71  A    between atoms: _180  and  _181
REMARK   72  A    between atoms: _180  and  _183
REMARK   73  A    between atoms: _183  and  _184
REMARK   74  A    between atoms: _189  and  _191
REMARK   75  A    between atoms: _191  and  _192
REMARK   76  A    between atoms: _195  and  _197
REMARK   77  A    between atoms: _197  and  _198
REMARK   78  A    between atoms: _197  and  _200
REMARK   79  A    between atoms: _200  and  _201
REMARK   80  A    between atoms: _203  and  _205
REMARK   81  A    between atoms: _205  and  _206
REMARK   82  A    between atoms: _209  and  _211
REMARK   83  A    between atoms: _211  and  _212
REMARK   84  A    between atoms: _211  and  _214
REMARK   85  A    between atoms: _214  and  _215
REMARK   86  A    between atoms: _225  and  _227
REMARK   87  A    between atoms: _227  and  _228
REMARK   88  A    between atoms: _227  and  _230
REMARK   89  A    between atoms: _230  and  _231
REMARK   90  A    between atoms: _234  and  _236
REMARK   91  A    between atoms: _236  and  _237
REMARK   92  A    between atoms: _236  and  _239
REMARK   93  A    between atoms: _239  and  _240
REMARK   94  A    between atoms: _245  and  _246
REMARK   95  A    between atoms: _248  and  _250
REMARK   96  A    between atoms: _250  and  _251
REMARK   97  A    between atoms: _250  and  _253
REMARK   98  A    between atoms: _253  and  _254
REMARK   99  A    between atoms: _254  and  _255
REMARK  100  A    between atoms: _255  and  _256
REMARK  101  A    between atoms: _265  and  _267
REMARK  102  A    between atoms: _267  and  _268
REMARK  103  A    between atoms: _267  and  _270
REMARK  104  A    between atoms: _270  and  _271
REMARK  105  A    between atoms: _274  and  _276
REMARK  106  A    between atoms: _276  and  _277
REMARK  107  A    between atoms: _276  and  _279
REMARK  108  A    between atoms: _279  and  _280
REMARK  109  A    between atoms: _280  and  _281
REMARK  110  A    between atoms: _281  and  _282
REMARK  111  A    between atoms: _282  and  _283
REMARK  112  A    between atoms: _287  and  _289
REMARK  113  A    between atoms: _289  and  _290
REMARK  114  A    between atoms: _289  and  _292
REMARK  115  A    between atoms: _292  and  _293
REMARK  116  A    between atoms: _293  and  _294
REMARK  117  A    between atoms: _299  and  _301
REMARK  118  A    between atoms: _301  and  _302
REMARK  119  A    between atoms: _301  and  _304
REMARK  120  A    between atoms: _304  and  _305
REMARK  121  A    between atoms: _310  and  _312
REMARK  122  A    between atoms: _312  and  _313
REMARK  123  A    between atoms: _312  and  _315
REMARK  124  A    between atoms: _315  and  _316
REMARK  125  A    between atoms: _319  and  _321
REMARK  126  A    between atoms: _321  and  _322
REMARK  127  A    between atoms: _321  and  _324
REMARK  128  A    between atoms: _324  and  _325
REMARK  129  A    between atoms: _325  and  _326
REMARK  130  A    between atoms: _329  and  _331
REMARK  131  A    between atoms: _331  and  _332
REMARK  132  A    between atoms: _331  and  _334
REMARK  133  A    between atoms: _334  and  _335
REMARK  134  A    between atoms: _338  and  _340
REMARK  135  A    between atoms: _340  and  _341
REMARK  136  A    between atoms: _340  and  _343
REMARK  137  A    between atoms: _346  and  _348
REMARK  138  A    between atoms: _348  and  _349
REMARK  139  A    between atoms: _348  and  _351
REMARK  140  A    between atoms: _354  and  _356
REMARK  141  A    between atoms: _356  and  _357
REMARK  142  A    between atoms: _360  and  _362
REMARK  143  A    between atoms: _362  and  _363
REMARK  144  A    between atoms: _362  and  _365
REMARK  145  A    between atoms: _365  and  _366
REMARK  146  A    between atoms: _371  and  _373
REMARK  147  A    between atoms: _384  and  _387
REMARK  148  A    between atoms: _387  and  _388
REMARK  149  A    between atoms: _388  and  _389
REMARK  150  A    between atoms: _394  and  _397
REMARK  151  A    between atoms: _397  and  _398
REMARK  152  A    between atoms: _398  and  _399
REMARK  153  A    between atoms: _408  and  _409
REMARK  154  A    between atoms: _417  and  _419
REMARK  155  A    between atoms: _419  and  _420
REMARK  156  A    between atoms: _419  and  _422
REMARK  157  A    between atoms: _422  and  _423
REMARK  158  A    between atoms: _426  and  _428
REMARK  159  A    between atoms: _428  and  _429
REMARK  160  A    between atoms: _428  and  _431
REMARK  161  A    between atoms: _431  and  _432
REMARK  162  A    between atoms: _437  and  _438
REMARK  163  A    between atoms: _440  and  _442
REMARK  164  A    between atoms: _442  and  _443
REMARK  165  A    between atoms: _442  and  _445
REMARK  166  A    between atoms: _445  and  _446
REMARK  167  A    between atoms: _452  and  _454
REMARK  168  A    between atoms: _454  and  _455
REMARK  169  A    between atoms: _454  and  _457
REMARK  170  A    between atoms: _457  and  _458
REMARK  171  A    between atoms: _463  and  _464
REMARK  172  A    between atoms: _466  and  _468
REMARK  173  A    between atoms: _468  and  _469
REMARK  174  A    between atoms: _468  and  _471
REMARK  175  A    between atoms: _471  and  _472
REMARK  176  A    between atoms: _472  and  _473
REMARK  177  A    between atoms: _473  and  _474
REMARK  178  A    between atoms: _483  and  _485
REMARK  179  A    between atoms: _485  and  _486
REMARK  180  A    between atoms: _485  and  _488
REMARK  181  A    between atoms: _488  and  _489
REMARK  182  A    between atoms: _489  and  _490
REMARK  183  A    between atoms: _493  and  _495
REMARK  184  A    between atoms: _495  and  _496
REMARK  185  A    between atoms: _498  and  _500
REMARK  186  A    between atoms: _500  and  _501
REMARK  187  A    between atoms: _500  and  _503
REMARK  188  A    between atoms: _503  and  _504
REMARK  189  A    between atoms: _510  and  _511
REMARK  190  A    between atoms: _516  and  _518
REMARK  191  A    between atoms: _518  and  _519
REMARK  192  A    between atoms: _521  and  _523
REMARK  193  A    between atoms: _523  and  _524
REMARK  194  A    between atoms: _523  and  _526
REMARK  195  A    between atoms: _526  and  _527
REMARK  196  A    between atoms: _533  and  _535
REMARK  197  A    between atoms: _535  and  _536
REMARK  198  A    between atoms: _535  and  _538
REMARK  199  A    between atoms: _538  and  _539
REMARK  200  A    between atoms: _544  and  _546
REMARK  201  A    between atoms: _546  and  _547
REMARK  202  A    between atoms: _546  and  _549
REMARK  203  A    between atoms: _549  and  _550
REMARK  204  A    between atoms: _550  and  _551
REMARK  205  A    between atoms: _551  and  _552
REMARK  206  A    between atoms: _552  and  ZN_793
REMARK  207  A    between atoms: _554  and  _556
REMARK  208  A    between atoms: _556  and  _557
REMARK  209  A    between atoms: _560  and  _562
REMARK  210  A    between atoms: _562  and  _563
REMARK  211  A    between atoms: _562  and  _565
REMARK  212  A    between atoms: _565  and  _566
REMARK  213  A    between atoms: _569  and  _571
REMARK  214  A    between atoms: _571  and  _572
REMARK  215  A    between atoms: _575  and  _577
REMARK  216  A    between atoms: _577  and  _578
REMARK  217  A    between atoms: _577  and  _580
REMARK  218  A    between atoms: _580  and  _581
REMARK  219  A    between atoms: _584  and  _586
REMARK  220  A    between atoms: _586  and  _587
REMARK  221  A    between atoms: _586  and  _589
REMARK  222  A    between atoms: _589  and  _590
REMARK  223  A    between atoms: _590  and  _591
REMARK  224  A    between atoms: _591  and  _592
REMARK  225  A    between atoms: _592  and  _593
REMARK  226  A    between atoms: _597  and  _599
REMARK  227  A    between atoms: _599  and  _600
REMARK  228  A    between atoms: _599  and  _602
REMARK  229  A    between atoms: _602  and  _603
REMARK  230  A    between atoms: _609  and  _611
REMARK  231  A    between atoms: _611  and  _612
REMARK  232  A    between atoms: _611  and  _614
REMARK  233  A    between atoms: _614  and  _615
REMARK  234  A    between atoms: _621  and  _623
REMARK  235  A    between atoms: _623  and  _624
REMARK  236  A    between atoms: _623  and  _626
REMARK  237  A    between atoms: _626  and  _627
REMARK  238  A    between atoms: _629  and  _631
REMARK  239  A    between atoms: _631  and  _632
REMARK  240  A    between atoms: _631  and  _634
REMARK  241  A    between atoms: _637  and  _639
REMARK  242  A    between atoms: _639  and  _640
REMARK  243  A    between atoms: _639  and  _642
REMARK  244  A    between atoms: _642  and  _643
REMARK  245  A    between atoms: _643  and  _644
REMARK  246  A    between atoms: _644  and  _645
REMARK  247  A    between atoms: _645  and  _646
REMARK  248  A    between atoms: _650  and  _652
REMARK  249  A    between atoms: _652  and  _653
REMARK  250  A    between atoms: _652  and  _655
REMARK  251  A    between atoms: _655  and  _656
REMARK  252  A    between atoms: _662  and  _664
REMARK  253  A    between atoms: _664  and  _665
REMARK  254  A    between atoms: _664  and  _667
REMARK  255  A    between atoms: _667  and  _668
REMARK  256  A    between atoms: _673  and  _675
REMARK  257  A    between atoms: _675  and  _676
REMARK  258  A    between atoms: _675  and  _678
REMARK  259  A    between atoms: _678  and  _679
REMARK  260  A    between atoms: _681  and  _683
REMARK  261  A    between atoms: _683  and  _684
REMARK  262  A    between atoms: _683  and  _686
REMARK  263  A    between atoms: _686  and  _687
REMARK  264  A    between atoms: _689  and  _691
REMARK  265  A    between atoms: _691  and  _692
REMARK  266  A    between atoms: _691  and  _694
REMARK  267  A    between atoms: _698  and  _699
REMARK  268  A    between atoms: _704  and  _706
REMARK  269  A    between atoms: _706  and  _707
REMARK  270  A    between atoms: _706  and  _709
REMARK  271  A    between atoms: _709  and  _710
REMARK  272  A    between atoms: _715  and  _716
REMARK  273  A    between atoms: _718  and  _720
REMARK  274  A    between atoms: _720  and  _721
REMARK  275  A    between atoms: _720  and  _723
REMARK  276  A    between atoms: _723  and  _724
REMARK  277  A    between atoms: _724  and  _725
REMARK  278  A    between atoms: _725  and  _726
REMARK  279  A    between atoms: _735  and  _737
REMARK  280  A    between atoms: _737  and  _738
REMARK  281  A    between atoms: _737  and  _740
REMARK  282  A    between atoms: _740  and  _741
REMARK  283  A    between atoms: _746  and  _747
REMARK  284  A    between atoms: _749  and  _751
REMARK  285  A    between atoms: _751  and  _752
REMARK  286  A    between atoms: _751  and  _754
REMARK  287  A    between atoms: _754  and  _755
REMARK  288  A    between atoms: _761  and  _763
REMARK  289  A    between atoms: _763  and  _764
REMARK  290  A    between atoms: _763  and  _766
REMARK  291  A    between atoms: _766  and  _767
REMARK  292  A    between atoms: _769  and  _771
REMARK  293  A    between atoms: _771  and  _772
REMARK  294  A    between atoms: _771  and  _774
REMARK  295  A    between atoms: _774  and  _775
REMARK  296  A    between atoms: _781  and  _783
REMARK  297  A    between atoms: _783  and  _784
REMARK  298  A    between atoms: _783  and  _786
REMARK  299  A    between atoms: _786  and  _787
REMARK  300  A    between atoms: _787  and  _788
REMARK                            x       y       z     vdW  Elec       q    Type
REMARK                         _______ _______ _______ _____ _____    ______ ____
ROOT
ATOM      1  CB  ASN A   1      10.568 -12.237  -8.573  0.00  0.00    +0.110 C 
ENDROOT
BRANCH   1   2
ATOM      2  CG  ASN A   1       9.588 -11.373  -9.324  0.00  0.00    +0.221 C 
ATOM      3  ND2 ASN A   1       8.774 -10.619  -8.594  0.00  0.00    -0.329 N 
ATOM      4 HD21 ASN A   1       8.849 -10.626  -7.557  0.00  0.00    +0.145 HD
ATOM      5 HD22 ASN A   1       8.062 -10.021  -9.060  0.00  0.00    +0.145 HD
ATOM      6  OD1 ASN A   1       9.544 -11.403 -10.546  0.00  0.00    -0.275 OA
ENDBRANCH   1   2
BRANCH   1   7
ATOM      7  CA  ASN A   1       9.897 -13.436  -7.917  0.00  0.00    +0.142 C 
BRANCH   7   8
ATOM      8  N   ASN A   1       9.402 -13.104  -6.574  0.00  0.00    -0.239 NA
ATOM      9  H   ASN A   1       9.541 -12.141  -6.206  0.00  0.00    +0.142 HD
ENDBRANCH   7   8
BRANCH   7  10
ATOM     10  C   ASN A   1      10.866 -14.609  -7.920  0.00  0.00    +0.225 C 
ATOM     11  O   ASN A   1      10.923 -15.355  -8.895  0.00  0.00    -0.287 OA
ENDBRANCH   7  10
ENDBRANCH   1   7
TORSDOF 4
REMARK  Name = ../refined-set-2016/4ca5/4ca5_pocket.pdb
REMARK  300 active torsions:
REMARK  status: ('A' for Active; 'I' for Inactive)
REMARK    1  A    between atoms: _1  and  _3
REMARK    2  A    between atoms: _3  and  _4
REMARK    3  A    between atoms: _3  and  _6
REMARK    4  A    between atoms: _6  and  _7
REMARK    5  A    between atoms: _12  and  _14
REMARK    6  A    between atoms: _14  and  _15
REMARK    7  A    between atoms: _14  and  _17
REMARK    8  A    between atoms: _17  and  _18
REMARK    9  A    between atoms: _23  and  _25
REMARK   10  A    between atoms: _25  and  _26
REMARK   11  A    between atoms: _25  and  _28
REMARK   12  A    between atoms: _28  and  _29
REMARK   13  A    between atoms: _29  and  _30
REMARK   14  A    between atoms: _33  and  _35
REMARK   15  A    between atoms: _35  and  _36
REMARK   16  A    between atoms: _35  and  _38
REMARK   17  A    between atoms: _38  and  _39
REMARK   18  A    between atoms: _44  and  _45
REMARK   19  A    between atoms: _47  and  _49
REMARK   20  A    between atoms: _49  and  _50
REMARK   21  A    between atoms: _49  and  _52
REMARK   22  A    between atoms: _52  and  _53
REMARK   23  A    between atoms: _53  and  _54
REMARK   24  A    between atoms: _57  and  _59
REMARK   25  A    between atoms: _59  and  _60
REMARK   26  A    between atoms: _59  and  _62
REMARK   27  A    between atoms: _62  and  _63
REMARK   28  A    between atoms: _66  and  _68
REMARK   29  A    between atoms: _68  and  _69
REMARK   30  A    between atoms: _71  and  _73
REMARK   31  A    between atoms: _73  and  _74
REMARK   32  A    between atoms: _73  and  _76
REMARK   33  A    between atoms: _76  and  _77
REMARK   34  A    between atoms: _82  and  _84
REMARK   35  A    between atoms: _84  and  _85
REMARK   36  A    between atoms: _84  and  _87
REMARK   37  A    between atoms: _87  and  _88
REMARK   38  A    between atoms: _88  and  _89
REMARK   39  A    between atoms: _91  and  _93
REMARK   40  A    between atoms: _93  and  _94
REMARK   41  A    between atoms: _93  and  _96
REMARK   42  A    between atoms: _96  and  _97
REMARK   43  A    between atoms: _107  and  _109
REMARK   44  A    between atoms: _109  and  _110
REMARK   45  A    between atoms: _109  and  _112
REMARK   46  A    between atoms: _112  and  _113
REMARK   47  A    between atoms: _113  and  _114
REMARK   48  A    between atoms: _119  and  _121
REMARK   49  A    between atoms: _121  and  _122
REMARK   50  A    between atoms: _121  and  _124
REMARK   51  A    between atoms: _124  and  _125
REMARK   52  A    between atoms: _128  and  _130
REMARK   53  A    between atoms: _130  and  _131
REMARK   54  A    between atoms: _130  and  _133
REMARK   55  A    between atoms: _133  and  _134
REMARK   56  A    between atoms: _144  and  _146
REMARK   57  A    between atoms: _146  and  _147
REMARK   58  A    between atoms: _146  and  _149
REMARK   59  A    between atoms: _149  and  _150
REMARK   60  A    between atoms: _152  and  _154
REMARK   61  A    between atoms: _154  and  _155
REMARK   62  A    between atoms: _154  and  _157
REMARK   63  A    between atoms: _157  and  _158
REMARK   64  A    between atoms: _163  and  _165
REMARK   65  A    between atoms: _165  and  _166
REMARK   66  A    between atoms: _165  and  _168
REMARK   67  A    between atoms: _171  and  _173
REMARK   68  A    between atoms: _173  and  _174
REMARK   69  A    between atoms: _173  and  _176
REMARK   70  A    between atoms: _178  and  _180
REMARK   71  A    between atoms: _180  and  _181
REMARK   72  A    between atoms: _180  and  _183
REMARK   73  A    between atoms: _183  and  _184
REMARK   74  A    between atoms: _189  and  _191
REMARK   75  A    between atoms: _191  and  _192
REMARK   76  A    between atoms: _195  and  _197
REMARK   77  A    between atoms: _197  and  _198
REMARK   78  A    between atoms: _197  and  _200
REMARK   79  A    between atoms: _200  and  _201
REMARK   80  A    between atoms: _203  and  _205
REMARK   81  A    between atoms: _205  and  _206
REMARK   82  A    between atoms: _209  and  _211
REMARK   83  A    between atoms: _211  and  _212
REMARK   84  A    between atoms: _211  and  _214
REMARK   85  A    between atoms: _214  and  _215
REMARK   86  A    between atoms: _225  and  _227
REMARK   87  A    between atoms: _227  and  _228
REMARK   88  A    between atoms: _227  and  _230
REMARK   89  A    between atoms: _230  and  _231
REMARK   90  A    between atoms: _234  and  _236
REMARK   91  A    between atoms: _236  and  _237
REMARK   92  A    between atoms: _236  and  _239
REMARK   93  A    between atoms: _239  and  _240
REMARK   94  A    between atoms: _245  and  _246
REMARK   95  A    between atoms: _248  and  _250
REMARK   96  A    between atoms: _250  and  _251
REMARK   97  A    between atoms: _250  and  _253
REMARK   98  A    between atoms: _253  and  _254
REMARK   99  A    between atoms: _254  and  _255
REMARK  100  A    between atoms: _255  and  _256
REMARK  101  A    between atoms: _265  and  _267
REMARK  102  A    between atoms: _267  and  _268
REMARK  103  A    between atoms: _267  and  _270
REMARK  104  A    between atoms: _270  and  _271
REMARK  105  A    between atoms: _274  and  _276
REMARK  106  A    between atoms: _276  and  _277
REMARK  107  A    between atoms: _276  and  _279
REMARK  108  A    between atoms: _279  and  _280
REMARK  109  A    between atoms: _280  and  _281
REMARK  110  A    between atoms: _281  and  _282
REMARK  111  A    between atoms: _282  and  _283
REMARK  112  A    between atoms: _287  and  _289
REMARK  113  A    between atoms: _289  and  _290
REMARK  114  A    between atoms: _289  and  _292
REMARK  115  A    between atoms: _292  and  _293
REMARK  116  A    between atoms: _293  and  _294
REMARK  117  A    between atoms: _299  and  _301
REMARK  118  A    between atoms: _301  and  _302
REMARK  119  A    between atoms: _301  and  _304
REMARK  120  A    between atoms: _304  and  _305
REMARK  121  A    between atoms: _310  and  _312
REMARK  122  A    between atoms: _312  and  _313
REMARK  123  A    between atoms: _312  and  _315
REMARK  124  A    between atoms: _315  and  _316
REMARK  125  A    between atoms: _319  and  _321
REMARK  126  A    between atoms: _321  and  _322
REMARK  127  A    between atoms: _321  and  _324
REMARK  128  A    between atoms: _324  and  _325
REMARK  129  A    between atoms: _325  and  _326
REMARK  130  A    between atoms: _329  and  _331
REMARK  131  A    between atoms: _331  and  _332
REMARK  132  A    between atoms: _331  and  _334
REMARK  133  A    between atoms: _334  and  _335
REMARK  134  A    between atoms: _338  and  _340
REMARK  135  A    between atoms: _340  and  _341
REMARK  136  A    between atoms: _340  and  _343
REMARK  137  A    between atoms: _346  and  _348
REMARK  138  A    between atoms: _348  and  _349
REMARK  139  A    between atoms: _348  and  _351
REMARK  140  A    between atoms: _354  and  _356
REMARK  141  A    between atoms: _356  and  _357
REMARK  142  A    between atoms: _360  and  _362
REMARK  143  A    between atoms: _362  and  _363
REMARK  144  A    between atoms: _362  and  _365
REMARK  145  A    between atoms: _365  and  _366
REMARK  146  A    between atoms: _371  and  _373
REMARK  147  A    between atoms: _384  and  _387
REMARK  148  A    between atoms: _387  and  _388
REMARK  149  A    between atoms: _388  and  _389
REMARK  150  A    between atoms: _394  and  _397
REMARK  151  A    between atoms: _397  and  _398
REMARK  152  A    between atoms: _398  and  _399
REMARK  153  A    between atoms: _408  and  _409
REMARK  154  A    between atoms: _417  and  _419
REMARK  155  A    between atoms: _419  and  _420
REMARK  156  A    between atoms: _419  and  _422
REMARK  157  A    between atoms: _422  and  _423
REMARK  158  A    between atoms: _426  and  _428
REMARK  159  A    between atoms: _428  and  _429
REMARK  160  A    between atoms: _428  and  _431
REMARK  161  A    between atoms: _431  and  _432
REMARK  162  A    between atoms: _437  and  _438
REMARK  163  A    between atoms: _440  and  _442
REMARK  164  A    between atoms: _442  and  _443
REMARK  165  A    between atoms: _442  and  _445
REMARK  166  A    between atoms: _445  and  _446
REMARK  167  A    between atoms: _452  and  _454
REMARK  168  A    between atoms: _454  and  _455
REMARK  169  A    between atoms: _454  and  _457
REMARK  170  A    between atoms: _457  and  _458
REMARK  171  A    between atoms: _463  and  _464
REMARK  172  A    between atoms: _466  and  _468
REMARK  173  A    between atoms: _468  and  _469
REMARK  174  A    between atoms: _468  and  _471
REMARK  175  A    between atoms: _471  and  _472
REMARK  176  A    between atoms: _472  and  _473
REMARK  177  A    between atoms: _473  and  _474
REMARK  178  A    between atoms: _483  and  _485
REMARK  179  A    between atoms: _485  and  _486
REMARK  180  A    between atoms: _485  and  _488
REMARK  181  A    between atoms: _488  and  _489
REMARK  182  A    between atoms: _489  and  _490
REMARK  183  A    between atoms: _493  and  _495
REMARK  184  A    between atoms: _495  and  _496
REMARK  185  A    between atoms: _498  and  _500
REMARK  186  A    between atoms: _500  and  _501
REMARK  187  A    between atoms: _500  and  _503
REMARK  188  A    between atoms: _503  and  _504
REMARK  189  A    between atoms: _510  and  _511
REMARK  190  A    between atoms: _516  and  _518
REMARK  191  A    between atoms: _518  and  _519
REMARK  192  A    between atoms: _521  and  _523
REMARK  193  A    between atoms: _523  and  _524
REMARK  194  A    between atoms: _523  and  _526
REMARK  195  A    between atoms: _526  and  _527
REMARK  196  A    between atoms: _533  and  _535
REMARK  197  A    between atoms: _535  and  _536
REMARK  198  A    between atoms: _535  and  _538
REMARK  199  A    between atoms: _538  and  _539
REMARK  200  A    between atoms: _544  and  _546
REMARK  201  A    between atoms: _546  and  _547
REMARK  202  A    between atoms: _546  and  _549
REMARK  203  A    between atoms: _549  and  _550
REMARK  204  A    between atoms: _550  and  _551
REMARK  205  A    between atoms: _551  and  _552
REMARK  206  A    between atoms: _552  and  ZN_793
REMARK  207  A    between atoms: _554  and  _556
REMARK  208  A    between atoms: _556  and  _557
REMARK  209  A    between atoms: _560  and  _562
REMARK  210  A    between atoms: _562  and  _563
REMARK  211  A    between atoms: _562  and  _565
REMARK  212  A    between atoms: _565  and  _566
REMARK  213  A    between atoms: _569  and  _571
REMARK  214  A    between atoms: _571  and  _572
REMARK  215  A    between atoms: _575  and  _577
REMARK  216  A    between atoms: _577  and  _578
REMARK  217  A    between atoms: _577  and  _580
REMARK  218  A    between atoms: _580  and  _581
REMARK  219  A    between atoms: _584  and  _586
REMARK  220  A    between atoms: _586  and  _587
REMARK  221  A    between atoms: _586  and  _589
REMARK  222  A    between atoms: _589  and  _590
REMARK  223  A    between atoms: _590  and  _591
REMARK  224  A    between atoms: _591  and  _592
REMARK  225  A    between atoms: _592  and  _593
REMARK  226  A    between atoms: _597  and  _599
REMARK  227  A    between atoms: _599  and  _600
REMARK  228  A    between atoms: _599  and  _602
REMARK  229  A    between atoms: _602  and  _603
REMARK  230  A    between atoms: _609  and  _611
REMARK  231  A    between atoms: _611  and  _612
REMARK  232  A    between atoms: _611  and  _614
REMARK  233  A    between atoms: _614  and  _615
REMARK  234  A    between atoms: _621  and  _623
REMARK  235  A    between atoms: _623  and  _624
REMARK  236  A    between atoms: _623  and  _626
REMARK  237  A    between atoms: _626  and  _627
REMARK  238  A    between atoms: _629  and  _631
REMARK  239  A    between atoms: _631  and  _632
REMARK  240  A    between atoms: _631  and  _634
REMARK  241  A    between atoms: _637  and  _639
REMARK  242  A    between atoms: _639  and  _640
REMARK  243  A    between atoms: _639  and  _642
REMARK  244  A    between atoms: _642  and  _643
REMARK  245  A    between atoms: _643  and  _644
REMARK  246  A    between atoms: _644  and  _645
REMARK  247  A    between atoms: _645  and  _646
REMARK  248  A    between atoms: _650  and  _652
REMARK  249  A    between atoms: _652  and  _653
REMARK  250  A    between atoms: _652  and  _655
REMARK  251  A    between atoms: _655  and  _656
REMARK  252  A    between atoms: _662  and  _664
REMARK  253  A    between atoms: _664  and  _665
REMARK  254  A    between atoms: _664  and  _667
REMARK  255  A    between atoms: _667  and  _668
REMARK  256  A    between atoms: _673  and  _675
REMARK  257  A    between atoms: _675  and  _676
REMARK  258  A    between atoms: _675  and  _678
REMARK  259  A    between atoms: _678  and  _679
REMARK  260  A    between atoms: _681  and  _683
REMARK  261  A    between atoms: _683  and  _684
REMARK  262  A    between atoms: _683  and  _686
REMARK  263  A    between atoms: _686  and  _687
REMARK  264  A    between atoms: _689  and  _691
REMARK  265  A    between atoms: _691  and  _692
REMARK  266  A    between atoms: _691  and  _694
REMARK  267  A    between atoms: _698  and  _699
REMARK  268  A    between atoms: _704  and  _706
REMARK  269  A    between atoms: _706  and  _707
REMARK  270  A    between atoms: _706  and  _709
REMARK  271  A    between atoms: _709  and  _710
REMARK  272  A    between atoms: _715  and  _716
REMARK  273  A    between atoms: _718  and  _720
REMARK  274  A    between atoms: _720  and  _721
REMARK  275  A    between atoms: _720  and  _723
REMARK  276  A    between atoms: _723  and  _724
REMARK  277  A    between atoms: _724  and  _725
REMARK  278  A    between atoms: _725  and  _726
REMARK  279  A    between atoms: _735  and  _737
REMARK  280  A    between atoms: _737  and  _738
REMARK  281  A    between atoms: _737  and  _740
REMARK  282  A    between atoms: _740  and  _741
REMARK  283  A    between atoms: _746  and  _747
REMARK  284  A    between atoms: _749  and  _751
REMARK  285  A    between atoms: _751  and  _752
REMARK  286  A    between atoms: _751  and  _754
REMARK  287  A    between atoms: _754  and  _755
REMARK  288  A    between atoms: _761  and  _763
REMARK  289  A    between atoms: _763  and  _764
REMARK  290  A    between atoms: _763  and  _766
REMARK  291  A    between atoms: _766  and  _767
REMARK  292  A    between atoms: _769  and  _771
REMARK  293  A    between atoms: _771  and  _772
REMARK  294  A    between atoms: _771  and  _774
REMARK  295  A    between atoms: _774  and  _775
REMARK  296  A    between atoms: _781  and  _783
REMARK  297  A    between atoms: _783  and  _784
REMARK  298  A    between atoms: _783  and  _786
REMARK  299  A    between atoms: _786  and  _787
REMARK  300  A    between atoms: _787  and  _788
REMARK                            x       y       z     vdW  Elec       q    Type
REMARK                         _______ _______ _______ _____ _____    ______ ____
ROOT
ATOM      1  CA  GLU A   1       2.133 -12.601 -13.440  0.00  0.00    +0.134 C 
ENDROOT
BRANCH   1   2
ATOM      2  N   GLU A   1       0.709 -12.263 -13.346  0.00  0.00    -0.239 NA
ATOM      3  H   GLU A   1       0.379 -11.543 -12.672  0.00  0.00    +0.142 HD
ENDBRANCH   1   2
BRANCH   1   4
ATOM      4  C   GLU A   1       2.430 -14.037 -12.984  0.00  0.00    +0.224 C 
ATOM      5  O   GLU A   1       3.258 -14.719 -13.590  0.00  0.00    -0.287 OA
ENDBRANCH   1   4
BRANCH   1   6
ATOM      6  CB  GLU A   1       3.042 -11.572 -12.738  0.00  0.00    +0.037 C 
BRANCH   6   7
ATOM      7  CG  GLU A   1       2.879 -11.466 -11.234  0.00  0.00    +0.116 C 
BRANCH   7   8
ATOM      8  CD  GLU A   1       3.880 -10.515 -10.588  0.00  0.00    +0.365 C 
ATOM      9  OE2 GLU A   1       3.862 -10.386  -9.341  0.00  0.00    -0.246 OA
ATOM     10  OE1 GLU A   1       4.680  -9.895 -11.314  0.00  0.00    -0.246 OA
ENDBRANCH   7   8
ENDBRANCH   6   7
ENDBRANCH   1   6
TORSDOF 5
REMARK  Name = ../refined-set-2016/4ca5/4ca5_pocket.pdb
REMARK  300 active torsions:
REMARK  status: ('A' for Active; 'I' for Inactive)
REMARK    1  A    between atoms: _1  and  _3
REMARK    2  A    between atoms: _3  and  _4
REMARK    3  A    between atoms: _3  and  _6
REMARK    4  A    between atoms: _6  and  _7
REMARK    5  A    between atoms: _12  and  _14
REMARK    6  A    between atoms: _14  and  _15
REMARK    7  A    between atoms: _14  and  _17
REMARK    8  A    between atoms: _17  and  _18
REMARK    9  A    between atoms: _23  and  _25
REMARK   10  A    between atoms: _25  and  _26
REMARK   11  A    between atoms: _25  and  _28
REMARK   12  A    between atoms: _28  and  _29
REMARK   13  A    between atoms: _29  and  _30
REMARK   14  A    between atoms: _33  and  _35
REMARK   15  A    between atoms: _35  and  _36
REMARK   16  A    between atoms: _35  and  _38
REMARK   17  A    between atoms: _38  and  _39
REMARK   18  A    between atoms: _44  and  _45
REMARK   19  A    between atoms: _47  and  _49
REMARK   20  A    between atoms: _49  and  _50
REMARK   21  A    between atoms: _49  and  _52
REMARK   22  A    between atoms: _52  and  _53
REMARK   23  A    between atoms: _53  and  _54
REMARK   24  A    between atoms: _57  and  _59
REMARK   25  A    between atoms: _59  and  _60
REMARK   26  A    between atoms: _59  and  _62
REMARK   27  A    between atoms: _62  and  _63
REMARK   28  A    between atoms: _66  and  _68
REMARK   29  A    between atoms: _68  and  _69
REMARK   30  A    between atoms: _71  and  _73
REMARK   31  A    between atoms: _73  and  _74
REMARK   32  A    between atoms: _73  and  _76
REMARK   33  A    between atoms: _76  and  _77
REMARK   34  A    between atoms: _82  and  _84
REMARK   35  A    between atoms: _84  and  _85
REMARK   36  A    between atoms: _84  and  _87
REMARK   37  A    between atoms: _87  and  _88
REMARK   38  A    between atoms: _88  and  _89
REMARK   39  A    between atoms: _91  and  _93
REMARK   40  A    between atoms: _93  and  _94
REMARK   41  A    between atoms: _93  and  _96
REMARK   42  A    between atoms: _96  and  _97
REMARK   43  A    between atoms: _107  and  _109
REMARK   44  A    between atoms: _109  and  _110
REMARK   45  A    between atoms: _109  and  _112
REMARK   46  A    between atoms: _112  and  _113
REMARK   47  A    between atoms: _113  and  _114
REMARK   48  A    between atoms: _119  and  _121
REMARK   49  A    between atoms: _121  and  _122
REMARK   50  A    between atoms: _121  and  _124
REMARK   51  A    between atoms: _124  and  _125
REMARK   52  A    between atoms: _128  and  _130
REMARK   53  A    between atoms: _130  and  _131
REMARK   54  A    between atoms: _130  and  _133
REMARK   55  A    between atoms: _133  and  _134
REMARK   56  A    between atoms: _144  and  _146
REMARK   57  A    between atoms: _146  and  _147
REMARK   58  A    between atoms: _146  and  _149
REMARK   59  A    between atoms: _149  and  _150
REMARK   60  A    between atoms: _152  and  _154
REMARK   61  A    between atoms: _154  and  _155
REMARK   62  A    between atoms: _154  and  _157
REMARK   63  A    between atoms: _157  and  _158
REMARK   64  A    between atoms: _163  and  _165
REMARK   65  A    between atoms: _165  and  _166
REMARK   66  A    between atoms: _165  and  _168
REMARK   67  A    between atoms: _171  and  _173
REMARK   68  A    between atoms: _173  and  _174
REMARK   69  A    between atoms: _173  and  _176
REMARK   70  A    between atoms: _178  and  _180
REMARK   71  A    between atoms: _180  and  _181
REMARK   72  A    between atoms: _180  and  _183
REMARK   73  A    between atoms: _183  and  _184
REMARK   74  A    between atoms: _189  and  _191
REMARK   75  A    between atoms: _191  and  _192
REMARK   76  A    between atoms: _195  and  _197
REMARK   77  A    between atoms: _197  and  _198
REMARK   78  A    between atoms: _197  and  _200
REMARK   79  A    between atoms: _200  and  _201
REMARK   80  A    between atoms: _203  and  _205
REMARK   81  A    between atoms: _205  and  _206
REMARK   82  A    between atoms: _209  and  _211
REMARK   83  A    between atoms: _211  and  _212
REMARK   84  A    between atoms: _211  and  _214
REMARK   85  A    between atoms: _214  and  _215
REMARK   86  A    between atoms: _225  and  _227
REMARK   87  A    between atoms: _227  and  _228
REMARK   88  A    between atoms: _227  and  _230
REMARK   89  A    between atoms: _230  and  _231
REMARK   90  A    between atoms: _234  and  _236
REMARK   91  A    between atoms: _236  and  _237
REMARK   92  A    between atoms: _236  and  _239
REMARK   93  A    between atoms: _239  and  _240
REMARK   94  A    between atoms: _245  and  _246
REMARK   95  A    between atoms: _248  and  _250
REMARK   96  A    between atoms: _250  and  _251
REMARK   97  A    between atoms: _250  and  _253
REMARK   98  A    between atoms: _253  and  _254
REMARK   99  A    between atoms: _254  and  _255
REMARK  100  A    between atoms: _255  and  _256
REMARK  101  A    between atoms: _265  and  _267
REMARK  102  A    between atoms: _267  and  _268
REMARK  103  A    between atoms: _267  and  _270
REMARK  104  A    between atoms: _270  and  _271
REMARK  105  A    between atoms: _274  and  _276
REMARK  106  A    between atoms: _276  and  _277
REMARK  107  A    between atoms: _276  and  _279
REMARK  108  A    between atoms: _279  and  _280
REMARK  109  A    between atoms: _280  and  _281
REMARK  110  A    between atoms: _281  and  _282
REMARK  111  A    between atoms: _282  and  _283
REMARK  112  A    between atoms: _287  and  _289
REMARK  113  A    between atoms: _289  and  _290
REMARK  114  A    between atoms: _289  and  _292
REMARK  115  A    between atoms: _292  and  _293
REMARK  116  A    between atoms: _293  and  _294
REMARK  117  A    between atoms: _299  and  _301
REMARK  118  A    between atoms: _301  and  _302
REMARK  119  A    between atoms: _301  and  _304
REMARK  120  A    between atoms: _304  and  _305
REMARK  121  A    between atoms: _310  and  _312
REMARK  122  A    between atoms: _312  and  _313
REMARK  123  A    between atoms: _312  and  _315
REMARK  124  A    between atoms: _315  and  _316
REMARK  125  A    between atoms: _319  and  _321
REMARK  126  A    between atoms: _321  and  _322
REMARK  127  A    between atoms: _321  and  _324
REMARK  128  A    between atoms: _324  and  _325
REMARK  129  A    between atoms: _325  and  _326
REMARK  130  A    between atoms: _329  and  _331
REMARK  131  A    between atoms: _331  and  _332
REMARK  132  A    between atoms: _331  and  _334
REMARK  133  A    between atoms: _334  and  _335
REMARK  134  A    between atoms: _338  and  _340
REMARK  135  A    between atoms: _340  and  _341
REMARK  136  A    between atoms: _340  and  _343
REMARK  137  A    between atoms: _346  and  _348
REMARK  138  A    between atoms: _348  and  _349
REMARK  139  A    between atoms: _348  and  _351
REMARK  140  A    between atoms: _354  and  _356
REMARK  141  A    between atoms: _356  and  _357
REMARK  142  A    between atoms: _360  and  _362
REMARK  143  A    between atoms: _362  and  _363
REMARK  144  A    between atoms: _362  and  _365
REMARK  145  A    between atoms: _365  and  _366
REMARK  146  A    between atoms: _371  and  _373
REMARK  147  A    between atoms: _384  and  _387
REMARK  148  A    between atoms: _387  and  _388
REMARK  149  A    between atoms: _388  and  _389
REMARK  150  A    between atoms: _394  and  _397
REMARK  151  A    between atoms: _397  and  _398
REMARK  152  A    between atoms: _398  and  _399
REMARK  153  A    between atoms: _408  and  _409
REMARK  154  A    between atoms: _417  and  _419
REMARK  155  A    between atoms: _419  and  _420
REMARK  156  A    between atoms: _419  and  _422
REMARK  157  A    between atoms: _422  and  _423
REMARK  158  A    between atoms: _426  and  _428
REMARK  159  A    between atoms: _428  and  _429
REMARK  160  A    between atoms: _428  and  _431
REMARK  161  A    between atoms: _431  and  _432
REMARK  162  A    between atoms: _437  and  _438
REMARK  163  A    between atoms: _440  and  _442
REMARK  164  A    between atoms: _442  and  _443
REMARK  165  A    between atoms: _442  and  _445
REMARK  166  A    between atoms: _445  and  _446
REMARK  167  A    between atoms: _452  and  _454
REMARK  168  A    between atoms: _454  and  _455
REMARK  169  A    between atoms: _454  and  _457
REMARK  170  A    between atoms: _457  and  _458
REMARK  171  A    between atoms: _463  and  _464
REMARK  172  A    between atoms: _466  and  _468
REMARK  173  A    between atoms: _468  and  _469
REMARK  174  A    between atoms: _468  and  _471
REMARK  175  A    between atoms: _471  and  _472
REMARK  176  A    between atoms: _472  and  _473
REMARK  177  A    between atoms: _473  and  _474
REMARK  178  A    between atoms: _483  and  _485
REMARK  179  A    between atoms: _485  and  _486
REMARK  180  A    between atoms: _485  and  _488
REMARK  181  A    between atoms: _488  and  _489
REMARK  182  A    between atoms: _489  and  _490
REMARK  183  A    between atoms: _493  and  _495
REMARK  184  A    between atoms: _495  and  _496
REMARK  185  A    between atoms: _498  and  _500
REMARK  186  A    between atoms: _500  and  _501
REMARK  187  A    between atoms: _500  and  _503
REMARK  188  A    between atoms: _503  and  _504
REMARK  189  A    between atoms: _510  and  _511
REMARK  190  A    between atoms: _516  and  _518
REMARK  191  A    between atoms: _518  and  _519
REMARK  192  A    between atoms: _521  and  _523
REMARK  193  A    between atoms: _523  and  _524
REMARK  194  A    between atoms: _523  and  _526
REMARK  195  A    between atoms: _526  and  _527
REMARK  196  A    between atoms: _533  and  _535
REMARK  197  A    between atoms: _535  and  _536
REMARK  198  A    between atoms: _535  and  _538
REMARK  199  A    between atoms: _538  and  _539
REMARK  200  A    between atoms: _544  and  _546
REMARK  201  A    between atoms: _546  and  _547
REMARK  202  A    between atoms: _546  and  _549
REMARK  203  A    between atoms: _549  and  _550
REMARK  204  A    between atoms: _550  and  _551
REMARK  205  A    between atoms: _551  and  _552
REMARK  206  A    between atoms: _552  and  ZN_793
REMARK  207  A    between atoms: _554  and  _556
REMARK  208  A    between atoms: _556  and  _557
REMARK  209  A    between atoms: _560  and  _562
REMARK  210  A    between atoms: _562  and  _563
REMARK  211  A    between atoms: _562  and  _565
REMARK  212  A    between atoms: _565  and  _566
REMARK  213  A    between atoms: _569  and  _571
REMARK  214  A    between atoms: _571  and  _572
REMARK  215  A    between atoms: _575  and  _577
REMARK  216  A    between atoms: _577  and  _578
REMARK  217  A    between atoms: _577  and  _580
REMARK  218  A    between atoms: _580  and  _581
REMARK  219  A    between atoms: _584  and  _586
REMARK  220  A    between atoms: _586  and  _587
REMARK  221  A    between atoms: _586  and  _589
REMARK  222  A    between atoms: _589  and  _590
REMARK  223  A    between atoms: _590  and  _591
REMARK  224  A    between atoms: _591  and  _592
REMARK  225  A    between atoms: _592  and  _593
REMARK  226  A    between atoms: _597  and  _599
REMARK  227  A    between atoms: _599  and  _600
REMARK  228  A    between atoms: _599  and  _602
REMARK  229  A    between atoms: _602  and  _603
REMARK  230  A    between atoms: _609  and  _611
REMARK  231  A    between atoms: _611  and  _612
REMARK  232  A    between atoms: _611  and  _614
REMARK  233  A    between atoms: _614  and  _615
REMARK  234  A    between atoms: _621  and  _623
REMARK  235  A    between atoms: _623  and  _624
REMARK  236  A    between atoms: _623  and  _626
REMARK  237  A    between atoms: _626  and  _627
REMARK  238  A    between atoms: _629  and  _631
REMARK  239  A    between atoms: _631  and  _632
REMARK  240  A    between atoms: _631  and  _634
REMARK  241  A    between atoms: _637  and  _639
REMARK  242  A    between atoms: _639  and  _640
REMARK  243  A    between atoms: _639  and  _642
REMARK  244  A    between atoms: _642  and  _643
REMARK  245  A    between atoms: _643  and  _644
REMARK  246  A    between atoms: _644  and  _645
REMARK  247  A    between atoms: _645  and  _646
REMARK  248  A    between atoms: _650  and  _652
REMARK  249  A    between atoms: _652  and  _653
REMARK  250  A    between atoms: _652  and  _655
REMARK  251  A    between atoms: _655  and  _656
REMARK  252  A    between atoms: _662  and  _664
REMARK  253  A    between atoms: _664  and  _665
REMARK  254  A    between atoms: _664  and  _667
REMARK  255  A    between atoms: _667  and  _668
REMARK  256  A    between atoms: _673  and  _675
REMARK  257  A    between atoms: _675  and  _676
REMARK  258  A    between atoms: _675  and  _678
REMARK  259  A    between atoms: _678  and  _679
REMARK  260  A    between atoms: _681  and  _683
REMARK  261  A    between atoms: _683  and  _684
REMARK  262  A    between atoms: _683  and  _686
REMARK  263  A    between atoms: _686  and  _687
REMARK  264  A    between atoms: _689  and  _691
REMARK  265  A    between atoms: _691  and  _692
REMARK  266  A    between atoms: _691  and  _694
REMARK  267  A    between atoms: _698  and  _699
REMARK  268  A    between atoms: _704  and  _706
REMARK  269  A    between atoms: _706  and  _707
REMARK  270  A    between atoms: _706  and  _709
REMARK  271  A    between atoms: _709  and  _710
REMARK  272  A    between atoms: _715  and  _716
REMARK  273  A    between atoms: _718  and  _720
REMARK  274  A    between atoms: _720  and  _721
REMARK  275  A    between atoms: _720  and  _723
REMARK  276  A    between atoms: _723  and  _724
REMARK  277  A    between atoms: _724  and  _725
REMARK  278  A    between atoms: _725  and  _726
REMARK  279  A    between atoms: _735  and  _737
REMARK  280  A    between atoms: _737  and  _738
REMARK  281  A    between atoms: _737  and  _740
REMARK  282  A    between atoms: _740  and  _741
REMARK  283  A    between atoms: _746  and  _747
REMARK  284  A    between atoms: _749  and  _751
REMARK  285  A    between atoms: _751  and  _752
REMARK  286  A    between atoms: _751  and  _754
REMARK  287  A    between atoms: _754  and  _755
REMARK  288  A    between atoms: _761  and  _763
REMARK  289  A    between atoms: _763  and  _764
REMARK  290  A    between atoms: _763  and  _766
REMARK  291  A    between atoms: _766  and  _767
REMARK  292  A    between atoms: _769  and  _771
REMARK  293  A    between atoms: _771  and  _772
REMARK  294  A    between atoms: _771  and  _774
REMARK  295  A    between atoms: _774  and  _775
REMARK  296  A    between atoms: _781  and  _783
REMARK  297  A    between atoms: _783  and  _784
REMARK  298  A    between atoms: _783  and  _786
REMARK  299  A    between atoms: _786  and  _787
REMARK  300  A    between atoms: _787  and  _788
REMARK                            x       y       z     vdW  Elec       q    Type
REMARK                         _______ _______ _______ _____ _____    ______ ____
ROOT
ATOM      1  CG  TYR A   1       3.551 -15.140 -18.484  0.00  0.00    -0.020 A 
ATOM      2  CD2 TYR A   1       4.932 -15.166 -18.253  0.00  0.00    -0.001 A 
ATOM      3  CE2 TYR A   1       5.841 -15.118 -19.313  0.00  0.00    +0.036 A 
ATOM      4  CZ  TYR A   1       5.362 -15.037 -20.618  0.00  0.00    +0.134 A 
ATOM      5  CE1 TYR A   1       4.000 -15.009 -20.871  0.00  0.00    +0.036 A 
ATOM      6  CD1 TYR A   1       3.103 -15.058 -19.812  0.00  0.00    -0.001 A 
ENDROOT
BRANCH   4   7
ATOM      7  OH  TYR A   1       6.250 -14.992 -21.674  0.00  0.00    -0.506 OA
ATOM      8  HH  TYR A   1       7.176 -15.020 -21.326  0.00  0.00    +0.292 HD
ENDBRANCH   4   7
BRANCH   1   9
ATOM      9  CB  TYR A   1       2.565 -15.180 -17.337  0.00  0.00    +0.051 C 
BRANCH   9  10
ATOM     10  CA  TYR A   1       2.173 -16.597 -16.887  0.00  0.00    +0.137 C 
BRANCH  10  11
ATOM     11  N   TYR A   1       1.233 -16.547 -15.764  0.00  0.00    -0.239 NA
ATOM     12  H   TYR A   1       1.026 -15.636 -15.308  0.00  0.00    +0.142 HD
ENDBRANCH  10  11
BRANCH  10  13
ATOM     13  C   TYR A   1       3.425 -17.410 -16.539  0.00  0.00    +0.224 C 
ATOM     14  O   TYR A   1       3.894 -18.215 -17.343  0.00  0.00    -0.287 OA
ENDBRANCH  10  13
ENDBRANCH   9  10
ENDBRANCH   1   9
TORSDOF 5
REMARK  Name = ../refined-set-2016/4ca5/4ca5_pocket.pdb
REMARK  300 active torsions:
REMARK  status: ('A' for Active; 'I' for Inactive)
REMARK    1  A    between atoms: _1  and  _3
REMARK    2  A    between atoms: _3  and  _4
REMARK    3  A    between atoms: _3  and  _6
REMARK    4  A    between atoms: _6  and  _7
REMARK    5  A    between atoms: _12  and  _14
REMARK    6  A    between atoms: _14  and  _15
REMARK    7  A    between atoms: _14  and  _17
REMARK    8  A    between atoms: _17  and  _18
REMARK    9  A    between atoms: _23  and  _25
REMARK   10  A    between atoms: _25  and  _26
REMARK   11  A    between atoms: _25  and  _28
REMARK   12  A    between atoms: _28  and  _29
REMARK   13  A    between atoms: _29  and  _30
REMARK   14  A    between atoms: _33  and  _35
REMARK   15  A    between atoms: _35  and  _36
REMARK   16  A    between atoms: _35  and  _38
REMARK   17  A    between atoms: _38  and  _39
REMARK   18  A    between atoms: _44  and  _45
REMARK   19  A    between atoms: _47  and  _49
REMARK   20  A    between atoms: _49  and  _50
REMARK   21  A    between atoms: _49  and  _52
REMARK   22  A    between atoms: _52  and  _53
REMARK   23  A    between atoms: _53  and  _54
REMARK   24  A    between atoms: _57  and  _59
REMARK   25  A    between atoms: _59  and  _60
REMARK   26  A    between atoms: _59  and  _62
REMARK   27  A    between atoms: _62  and  _63
REMARK   28  A    between atoms: _66  and  _68
REMARK   29  A    between atoms: _68  and  _69
REMARK   30  A    between atoms: _71  and  _73
REMARK   31  A    between atoms: _73  and  _74
REMARK   32  A    between atoms: _73  and  _76
REMARK   33  A    between atoms: _76  and  _77
REMARK   34  A    between atoms: _82  and  _84
REMARK   35  A    between atoms: _84  and  _85
REMARK   36  A    between atoms: _84  and  _87
REMARK   37  A    between atoms: _87  and  _88
REMARK   38  A    between atoms: _88  and  _89
REMARK   39  A    between atoms: _91  and  _93
REMARK   40  A    between atoms: _93  and  _94
REMARK   41  A    between atoms: _93  and  _96
REMARK   42  A    between atoms: _96  and  _97
REMARK   43  A    between atoms: _107  and  _109
REMARK   44  A    between atoms: _109  and  _110
REMARK   45  A    between atoms: _109  and  _112
REMARK   46  A    between atoms: _112  and  _113
REMARK   47  A    between atoms: _113  and  _114
REMARK   48  A    between atoms: _119  and  _121
REMARK   49  A    between atoms: _121  and  _122
REMARK   50  A    between atoms: _121  and  _124
REMARK   51  A    between atoms: _124  and  _125
REMARK   52  A    between atoms: _128  and  _130
REMARK   53  A    between atoms: _130  and  _131
REMARK   54  A    between atoms: _130  and  _133
REMARK   55  A    between atoms: _133  and  _134
REMARK   56  A    between atoms: _144  and  _146
REMARK   57  A    between atoms: _146  and  _147
REMARK   58  A    between atoms: _146  and  _149
REMARK   59  A    between atoms: _149  and  _150
REMARK   60  A    between atoms: _152  and  _154
REMARK   61  A    between atoms: _154  and  _155
REMARK   62  A    between atoms: _154  and  _157
REMARK   63  A    between atoms: _157  and  _158
REMARK   64  A    between atoms: _163  and  _165
REMARK   65  A    between atoms: _165  and  _166
REMARK   66  A    between atoms: _165  and  _168
REMARK   67  A    between atoms: _171  and  _173
REMARK   68  A    between atoms: _173  and  _174
REMARK   69  A    between atoms: _173  and  _176
REMARK   70  A    between atoms: _178  and  _180
REMARK   71  A    between atoms: _180  and  _181
REMARK   72  A    between atoms: _180  and  _183
REMARK   73  A    between atoms: _183  and  _184
REMARK   74  A    between atoms: _189  and  _191
REMARK   75  A    between atoms: _191  and  _192
REMARK   76  A    between atoms: _195  and  _197
REMARK   77  A    between atoms: _197  and  _198
REMARK   78  A    between atoms: _197  and  _200
REMARK   79  A    between atoms: _200  and  _201
REMARK   80  A    between atoms: _203  and  _205
REMARK   81  A    between atoms: _205  and  _206
REMARK   82  A    between atoms: _209  and  _211
REMARK   83  A    between atoms: _211  and  _212
REMARK   84  A    between atoms: _211  and  _214
REMARK   85  A    between atoms: _214  and  _215
REMARK   86  A    between atoms: _225  and  _227
REMARK   87  A    between atoms: _227  and  _228
REMARK   88  A    between atoms: _227  and  _230
REMARK   89  A    between atoms: _230  and  _231
REMARK   90  A    between atoms: _234  and  _236
REMARK   91  A    between atoms: _236  and  _237
REMARK   92  A    between atoms: _236  and  _239
REMARK   93  A    between atoms: _239  and  _240
REMARK   94  A    between atoms: _245  and  _246
REMARK   95  A    between atoms: _248  and  _250
REMARK   96  A    between atoms: _250  and  _251
REMARK   97  A    between atoms: _250  and  _253
REMARK   98  A    between atoms: _253  and  _254
REMARK   99  A    between atoms: _254  and  _255
REMARK  100  A    between atoms: _255  and  _256
REMARK  101  A    between atoms: _265  and  _267
REMARK  102  A    between atoms: _267  and  _268
REMARK  103  A    between atoms: _267  and  _270
REMARK  104  A    between atoms: _270  and  _271
REMARK  105  A    between atoms: _274  and  _276
REMARK  106  A    between atoms: _276  and  _277
REMARK  107  A    between atoms: _276  and  _279
REMARK  108  A    between atoms: _279  and  _280
REMARK  109  A    between atoms: _280  and  _281
REMARK  110  A    between atoms: _281  and  _282
REMARK  111  A    between atoms: _282  and  _283
REMARK  112  A    between atoms: _287  and  _289
REMARK  113  A    between atoms: _289  and  _290
REMARK  114  A    between atoms: _289  and  _292
REMARK  115  A    between atoms: _292  and  _293
REMARK  116  A    between atoms: _293  and  _294
REMARK  117  A    between atoms: _299  and  _301
REMARK  118  A    between atoms: _301  and  _302
REMARK  119  A    between atoms: _301  and  _304
REMARK  120  A    between atoms: _304  and  _305
REMARK  121  A    between atoms: _310  and  _312
REMARK  122  A    between atoms: _312  and  _313
REMARK  123  A    between atoms: _312  and  _315
REMARK  124  A    between atoms: _315  and  _316
REMARK  125  A    between atoms: _319  and  _321
REMARK  126  A    between atoms: _321  and  _322
REMARK  127  A    between atoms: _321  and  _324
REMARK  128  A    between atoms: _324  and  _325
REMARK  129  A    between atoms: _325  and  _326
REMARK  130  A    between atoms: _329  and  _331
REMARK  131  A    between atoms: _331  and  _332
REMARK  132  A    between atoms: _331  and  _334
REMARK  133  A    between atoms: _334  and  _335
REMARK  134  A    between atoms: _338  and  _340
REMARK  135  A    between atoms: _340  and  _341
REMARK  136  A    between atoms: _340  and  _343
REMARK  137  A    between atoms: _346  and  _348
REMARK  138  A    between atoms: _348  and  _349
REMARK  139  A    between atoms: _348  and  _351
REMARK  140  A    between atoms: _354  and  _356
REMARK  141  A    between atoms: _356  and  _357
REMARK  142  A    between atoms: _360  and  _362
REMARK  143  A    between atoms: _362  and  _363
REMARK  144  A    between atoms: _362  and  _365
REMARK  145  A    between atoms: _365  and  _366
REMARK  146  A    between atoms: _371  and  _373
REMARK  147  A    between atoms: _384  and  _387
REMARK  148  A    between atoms: _387  and  _388
REMARK  149  A    between atoms: _388  and  _389
REMARK  150  A    between atoms: _394  and  _397
REMARK  151  A    between atoms: _397  and  _398
REMARK  152  A    between atoms: _398  and  _399
REMARK  153  A    between atoms: _408  and  _409
REMARK  154  A    between atoms: _417  and  _419
REMARK  155  A    between atoms: _419  and  _420
REMARK  156  A    between atoms: _419  and  _422
REMARK  157  A    between atoms: _422  and  _423
REMARK  158  A    between atoms: _426  and  _428
REMARK  159  A    between atoms: _428  and  _429
REMARK  160  A    between atoms: _428  and  _431
REMARK  161  A    between atoms: _431  and  _432
REMARK  162  A    between atoms: _437  and  _438
REMARK  163  A    between atoms: _440  and  _442
REMARK  164  A    between atoms: _442  and  _443
REMARK  165  A    between atoms: _442  and  _445
REMARK  166  A    between atoms: _445  and  _446
REMARK  167  A    between atoms: _452  and  _454
REMARK  168  A    between atoms: _454  and  _455
REMARK  169  A    between atoms: _454  and  _457
REMARK  170  A    between atoms: _457  and  _458
REMARK  171  A    between atoms: _463  and  _464
REMARK  172  A    between atoms: _466  and  _468
REMARK  173  A    between atoms: _468  and  _469
REMARK  174  A    between atoms: _468  and  _471
REMARK  175  A    between atoms: _471  and  _472
REMARK  176  A    between atoms: _472  and  _473
REMARK  177  A    between atoms: _473  and  _474
REMARK  178  A    between atoms: _483  and  _485
REMARK  179  A    between atoms: _485  and  _486
REMARK  180  A    between atoms: _485  and  _488
REMARK  181  A    between atoms: _488  and  _489
REMARK  182  A    between atoms: _489  and  _490
REMARK  183  A    between atoms: _493  and  _495
REMARK  184  A    between atoms: _495  and  _496
REMARK  185  A    between atoms: _498  and  _500
REMARK  186  A    between atoms: _500  and  _501
REMARK  187  A    between atoms: _500  and  _503
REMARK  188  A    between atoms: _503  and  _504
REMARK  189  A    between atoms: _510  and  _511
REMARK  190  A    between atoms: _516  and  _518
REMARK  191  A    between atoms: _518  and  _519
REMARK  192  A    between atoms: _521  and  _523
REMARK  193  A    between atoms: _523  and  _524
REMARK  194  A    between atoms: _523  and  _526
REMARK  195  A    between atoms: _526  and  _527
REMARK  196  A    between atoms: _533  and  _535
REMARK  197  A    between atoms: _535  and  _536
REMARK  198  A    between atoms: _535  and  _538
REMARK  199  A    between atoms: _538  and  _539
REMARK  200  A    between atoms: _544  and  _546
REMARK  201  A    between atoms: _546  and  _547
REMARK  202  A    between atoms: _546  and  _549
REMARK  203  A    between atoms: _549  and  _550
REMARK  204  A    between atoms: _550  and  _551
REMARK  205  A    between atoms: _551  and  _552
REMARK  206  A    between atoms: _552  and  ZN_793
REMARK  207  A    between atoms: _554  and  _556
REMARK  208  A    between atoms: _556  and  _557
REMARK  209  A    between atoms: _560  and  _562
REMARK  210  A    between atoms: _562  and  _563
REMARK  211  A    between atoms: _562  and  _565
REMARK  212  A    between atoms: _565  and  _566
REMARK  213  A    between atoms: _569  and  _571
REMARK  214  A    between atoms: _571  and  _572
REMARK  215  A    between atoms: _575  and  _577
REMARK  216  A    between atoms: _577  and  _578
REMARK  217  A    between atoms: _577  and  _580
REMARK  218  A    between atoms: _580  and  _581
REMARK  219  A    between atoms: _584  and  _586
REMARK  220  A    between atoms: _586  and  _587
REMARK  221  A    between atoms: _586  and  _589
REMARK  222  A    between atoms: _589  and  _590
REMARK  223  A    between atoms: _590  and  _591
REMARK  224  A    between atoms: _591  and  _592
REMARK  225  A    between atoms: _592  and  _593
REMARK  226  A    between atoms: _597  and  _599
REMARK  227  A    between atoms: _599  and  _600
REMARK  228  A    between atoms: _599  and  _602
REMARK  229  A    between atoms: _602  and  _603
REMARK  230  A    between atoms: _609  and  _611
REMARK  231  A    between atoms: _611  and  _612
REMARK  232  A    between atoms: _611  and  _614
REMARK  233  A    between atoms: _614  and  _615
REMARK  234  A    between atoms: _621  and  _623
REMARK  235  A    between atoms: _623  and  _624
REMARK  236  A    between atoms: _623  and  _626
REMARK  237  A    between atoms: _626  and  _627
REMARK  238  A    between atoms: _629  and  _631
REMARK  239  A    between atoms: _631  and  _632
REMARK  240  A    between atoms: _631  and  _634
REMARK  241  A    between atoms: _637  and  _639
REMARK  242  A    between atoms: _639  and  _640
REMARK  243  A    between atoms: _639  and  _642
REMARK  244  A    between atoms: _642  and  _643
REMARK  245  A    between atoms: _643  and  _644
REMARK  246  A    between atoms: _644  and  _645
REMARK  247  A    between atoms: _645  and  _646
REMARK  248  A    between atoms: _650  and  _652
REMARK  249  A    between atoms: _652  and  _653
REMARK  250  A    between atoms: _652  and  _655
REMARK  251  A    between atoms: _655  and  _656
REMARK  252  A    between atoms: _662  and  _664
REMARK  253  A    between atoms: _664  and  _665
REMARK  254  A    between atoms: _664  and  _667
REMARK  255  A    between atoms: _667  and  _668
REMARK  256  A    between atoms: _673  and  _675
REMARK  257  A    between atoms: _675  and  _676
REMARK  258  A    between atoms: _675  and  _678
REMARK  259  A    between atoms: _678  and  _679
REMARK  260  A    between atoms: _681  and  _683
REMARK  261  A    between atoms: _683  and  _684
REMARK  262  A    between atoms: _683  and  _686
REMARK  263  A    between atoms: _686  and  _687
REMARK  264  A    between atoms: _689  and  _691
REMARK  265  A    between atoms: _691  and  _692
REMARK  266  A    between atoms: _691  and  _694
REMARK  267  A    between atoms: _698  and  _699
REMARK  268  A    between atoms: _704  and  _706
REMARK  269  A    between atoms: _706  and  _707
REMARK  270  A    between atoms: _706  and  _709
REMARK  271  A    between atoms: _709  and  _710
REMARK  272  A    between atoms: _715  and  _716
REMARK  273  A    between atoms: _718  and  _720
REMARK  274  A    between atoms: _720  and  _721
REMARK  275  A    between atoms: _720  and  _723
REMARK  276  A    between atoms: _723  and  _724
REMARK  277  A    between atoms: _724  and  _725
REMARK  278  A    between atoms: _725  and  _726
REMARK  279  A    between atoms: _735  and  _737
REMARK  280  A    between atoms: _737  and  _738
REMARK  281  A    between atoms: _737  and  _740
REMARK  282  A    between atoms: _740  and  _741
REMARK  283  A    between atoms: _746  and  _747
REMARK  284  A    between atoms: _749  and  _751
REMARK  285  A    between atoms: _751  and  _752
REMARK  286  A    between atoms: _751  and  _754
REMARK  287  A    between atoms: _754  and  _755
REMARK  288  A    between atoms: _761  and  _763
REMARK  289  A    between atoms: _763  and  _764
REMARK  290  A    between atoms: _763  and  _766
REMARK  291  A    between atoms: _766  and  _767
REMARK  292  A    between atoms: _769  and  _771
REMARK  293  A    between atoms: _771  and  _772
REMARK  294  A    between atoms: _771  and  _774
REMARK  295  A    between atoms: _774  and  _775
REMARK  296  A    between atoms: _781  and  _783
REMARK  297  A    between atoms: _783  and  _784
REMARK  298  A    between atoms: _783  and  _786
REMARK  299  A    between atoms: _786  and  _787
REMARK  300  A    between atoms: _787  and  _788
REMARK                            x       y       z     vdW  Elec       q    Type
REMARK                         _______ _______ _______ _____ _____    ______ ____
ROOT
ATOM      1  CA  GLU A   1      12.176 -21.333 -20.221  0.00  0.00    +0.134 C 
ENDROOT
BRANCH   1   2
ATOM      2  N   GLU A   1      10.720 -21.378 -20.321  0.00  0.00    -0.239 NA
ATOM      3  H   GLU A   1      10.159 -21.231 -19.457  0.00  0.00    +0.142 HD
ENDBRANCH   1   2
BRANCH   1   4
ATOM      4  C   GLU A   1      12.673 -22.513 -19.382  0.00  0.00    +0.224 C 
ATOM      5  O   GLU A   1      12.372 -22.568 -18.197  0.00  0.00    -0.287 OA
ENDBRANCH   1   4
BRANCH   1   6
ATOM      6  CB  GLU A   1      12.606 -20.044 -19.523  0.00  0.00    +0.037 C 
BRANCH   6   7
ATOM      7  CG  GLU A   1      12.388 -18.775 -20.321  0.00  0.00    +0.116 C 
BRANCH   7   8
ATOM      8  CD  GLU A   1      13.121 -17.593 -19.701  0.00  0.00    +0.365 C 
ATOM      9  OE2 GLU A   1      14.283 -17.752 -19.267  0.00  0.00    -0.246 OA
ATOM     10  OE1 GLU A   1      12.535 -16.504 -19.640  0.00  0.00    -0.246 OA
ENDBRANCH   7   8
ENDBRANCH   6   7
ENDBRANCH   1   6
TORSDOF 5
REMARK  Name = ../refined-set-2016/4ca5/4ca5_pocket.pdb
REMARK  300 active torsions:
REMARK  status: ('A' for Active; 'I' for Inactive)
REMARK    1  A    between atoms: _1  and  _3
REMARK    2  A    between atoms: _3  and  _4
REMARK    3  A    between atoms: _3  and  _6
REMARK    4  A    between atoms: _6  and  _7
REMARK    5  A    between atoms: _12  and  _14
REMARK    6  A    between atoms: _14  and  _15
REMARK    7  A    between atoms: _14  and  _17
REMARK    8  A    between atoms: _17  and  _18
REMARK    9  A    between atoms: _23  and  _25
REMARK   10  A    between atoms: _25  and  _26
REMARK   11  A    between atoms: _25  and  _28
REMARK   12  A    between atoms: _28  and  _29
REMARK   13  A    between atoms: _29  and  _30
REMARK   14  A    between atoms: _33  and  _35
REMARK   15  A    between atoms: _35  and  _36
REMARK   16  A    between atoms: _35  and  _38
REMARK   17  A    between atoms: _38  and  _39
REMARK   18  A    between atoms: _44  and  _45
REMARK   19  A    between atoms: _47  and  _49
REMARK   20  A    between atoms: _49  and  _50
REMARK   21  A    between atoms: _49  and  _52
REMARK   22  A    between atoms: _52  and  _53
REMARK   23  A    between atoms: _53  and  _54
REMARK   24  A    between atoms: _57  and  _59
REMARK   25  A    between atoms: _59  and  _60
REMARK   26  A    between atoms: _59  and  _62
REMARK   27  A    between atoms: _62  and  _63
REMARK   28  A    between atoms: _66  and  _68
REMARK   29  A    between atoms: _68  and  _69
REMARK   30  A    between atoms: _71  and  _73
REMARK   31  A    between atoms: _73  and  _74
REMARK   32  A    between atoms: _73  and  _76
REMARK   33  A    between atoms: _76  and  _77
REMARK   34  A    between atoms: _82  and  _84
REMARK   35  A    between atoms: _84  and  _85
REMARK   36  A    between atoms: _84  and  _87
REMARK   37  A    between atoms: _87  and  _88
REMARK   38  A    between atoms: _88  and  _89
REMARK   39  A    between atoms: _91  and  _93
REMARK   40  A    between atoms: _93  and  _94
REMARK   41  A    between atoms: _93  and  _96
REMARK   42  A    between atoms: _96  and  _97
REMARK   43  A    between atoms: _107  and  _109
REMARK   44  A    between atoms: _109  and  _110
REMARK   45  A    between atoms: _109  and  _112
REMARK   46  A    between atoms: _112  and  _113
REMARK   47  A    between atoms: _113  and  _114
REMARK   48  A    between atoms: _119  and  _121
REMARK   49  A    between atoms: _121  and  _122
REMARK   50  A    between atoms: _121  and  _124
REMARK   51  A    between atoms: _124  and  _125
REMARK   52  A    between atoms: _128  and  _130
REMARK   53  A    between atoms: _130  and  _131
REMARK   54  A    between atoms: _130  and  _133
REMARK   55  A    between atoms: _133  and  _134
REMARK   56  A    between atoms: _144  and  _146
REMARK   57  A    between atoms: _146  and  _147
REMARK   58  A    between atoms: _146  and  _149
REMARK   59  A    between atoms: _149  and  _150
REMARK   60  A    between atoms: _152  and  _154
REMARK   61  A    between atoms: _154  and  _155
REMARK   62  A    between atoms: _154  and  _157
REMARK   63  A    between atoms: _157  and  _158
REMARK   64  A    between atoms: _163  and  _165
REMARK   65  A    between atoms: _165  and  _166
REMARK   66  A    between atoms: _165  and  _168
REMARK   67  A    between atoms: _171  and  _173
REMARK   68  A    between atoms: _173  and  _174
REMARK   69  A    between atoms: _173  and  _176
REMARK   70  A    between atoms: _178  and  _180
REMARK   71  A    between atoms: _180  and  _181
REMARK   72  A    between atoms: _180  and  _183
REMARK   73  A    between atoms: _183  and  _184
REMARK   74  A    between atoms: _189  and  _191
REMARK   75  A    between atoms: _191  and  _192
REMARK   76  A    between atoms: _195  and  _197
REMARK   77  A    between atoms: _197  and  _198
REMARK   78  A    between atoms: _197  and  _200
REMARK   79  A    between atoms: _200  and  _201
REMARK   80  A    between atoms: _203  and  _205
REMARK   81  A    between atoms: _205  and  _206
REMARK   82  A    between atoms: _209  and  _211
REMARK   83  A    between atoms: _211  and  _212
REMARK   84  A    between atoms: _211  and  _214
REMARK   85  A    between atoms: _214  and  _215
REMARK   86  A    between atoms: _225  and  _227
REMARK   87  A    between atoms: _227  and  _228
REMARK   88  A    between atoms: _227  and  _230
REMARK   89  A    between atoms: _230  and  _231
REMARK   90  A    between atoms: _234  and  _236
REMARK   91  A    between atoms: _236  and  _237
REMARK   92  A    between atoms: _236  and  _239
REMARK   93  A    between atoms: _239  and  _240
REMARK   94  A    between atoms: _245  and  _246
REMARK   95  A    between atoms: _248  and  _250
REMARK   96  A    between atoms: _250  and  _251
REMARK   97  A    between atoms: _250  and  _253
REMARK   98  A    between atoms: _253  and  _254
REMARK   99  A    between atoms: _254  and  _255
REMARK  100  A    between atoms: _255  and  _256
REMARK  101  A    between atoms: _265  and  _267
REMARK  102  A    between atoms: _267  and  _268
REMARK  103  A    between atoms: _267  and  _270
REMARK  104  A    between atoms: _270  and  _271
REMARK  105  A    between atoms: _274  and  _276
REMARK  106  A    between atoms: _276  and  _277
REMARK  107  A    between atoms: _276  and  _279
REMARK  108  A    between atoms: _279  and  _280
REMARK  109  A    between atoms: _280  and  _281
REMARK  110  A    between atoms: _281  and  _282
REMARK  111  A    between atoms: _282  and  _283
REMARK  112  A    between atoms: _287  and  _289
REMARK  113  A    between atoms: _289  and  _290
REMARK  114  A    between atoms: _289  and  _292
REMARK  115  A    between atoms: _292  and  _293
REMARK  116  A    between atoms: _293  and  _294
REMARK  117  A    between atoms: _299  and  _301
REMARK  118  A    between atoms: _301  and  _302
REMARK  119  A    between atoms: _301  and  _304
REMARK  120  A    between atoms: _304  and  _305
REMARK  121  A    between atoms: _310  and  _312
REMARK  122  A    between atoms: _312  and  _313
REMARK  123  A    between atoms: _312  and  _315
REMARK  124  A    between atoms: _315  and  _316
REMARK  125  A    between atoms: _319  and  _321
REMARK  126  A    between atoms: _321  and  _322
REMARK  127  A    between atoms: _321  and  _324
REMARK  128  A    between atoms: _324  and  _325
REMARK  129  A    between atoms: _325  and  _326
REMARK  130  A    between atoms: _329  and  _331
REMARK  131  A    between atoms: _331  and  _332
REMARK  132  A    between atoms: _331  and  _334
REMARK  133  A    between atoms: _334  and  _335
REMARK  134  A    between atoms: _338  and  _340
REMARK  135  A    between atoms: _340  and  _341
REMARK  136  A    between atoms: _340  and  _343
REMARK  137  A    between atoms: _346  and  _348
REMARK  138  A    between atoms: _348  and  _349
REMARK  139  A    between atoms: _348  and  _351
REMARK  140  A    between atoms: _354  and  _356
REMARK  141  A    between atoms: _356  and  _357
REMARK  142  A    between atoms: _360  and  _362
REMARK  143  A    between atoms: _362  and  _363
REMARK  144  A    between atoms: _362  and  _365
REMARK  145  A    between atoms: _365  and  _366
REMARK  146  A    between atoms: _371  and  _373
REMARK  147  A    between atoms: _384  and  _387
REMARK  148  A    between atoms: _387  and  _388
REMARK  149  A    between atoms: _388  and  _389
REMARK  150  A    between atoms: _394  and  _397
REMARK  151  A    between atoms: _397  and  _398
REMARK  152  A    between atoms: _398  and  _399
REMARK  153  A    between atoms: _408  and  _409
REMARK  154  A    between atoms: _417  and  _419
REMARK  155  A    between atoms: _419  and  _420
REMARK  156  A    between atoms: _419  and  _422
REMARK  157  A    between atoms: _422  and  _423
REMARK  158  A    between atoms: _426  and  _428
REMARK  159  A    between atoms: _428  and  _429
REMARK  160  A    between atoms: _428  and  _431
REMARK  161  A    between atoms: _431  and  _432
REMARK  162  A    between atoms: _437  and  _438
REMARK  163  A    between atoms: _440  and  _442
REMARK  164  A    between atoms: _442  and  _443
REMARK  165  A    between atoms: _442  and  _445
REMARK  166  A    between atoms: _445  and  _446
REMARK  167  A    between atoms: _452  and  _454
REMARK  168  A    between atoms: _454  and  _455
REMARK  169  A    between atoms: _454  and  _457
REMARK  170  A    between atoms: _457  and  _458
REMARK  171  A    between atoms: _463  and  _464
REMARK  172  A    between atoms: _466  and  _468
REMARK  173  A    between atoms: _468  and  _469
REMARK  174  A    between atoms: _468  and  _471
REMARK  175  A    between atoms: _471  and  _472
REMARK  176  A    between atoms: _472  and  _473
REMARK  177  A    between atoms: _473  and  _474
REMARK  178  A    between atoms: _483  and  _485
REMARK  179  A    between atoms: _485  and  _486
REMARK  180  A    between atoms: _485  and  _488
REMARK  181  A    between atoms: _488  and  _489
REMARK  182  A    between atoms: _489  and  _490
REMARK  183  A    between atoms: _493  and  _495
REMARK  184  A    between atoms: _495  and  _496
REMARK  185  A    between atoms: _498  and  _500
REMARK  186  A    between atoms: _500  and  _501
REMARK  187  A    between atoms: _500  and  _503
REMARK  188  A    between atoms: _503  and  _504
REMARK  189  A    between atoms: _510  and  _511
REMARK  190  A    between atoms: _516  and  _518
REMARK  191  A    between atoms: _518  and  _519
REMARK  192  A    between atoms: _521  and  _523
REMARK  193  A    between atoms: _523  and  _524
REMARK  194  A    between atoms: _523  and  _526
REMARK  195  A    between atoms: _526  and  _527
REMARK  196  A    between atoms: _533  and  _535
REMARK  197  A    between atoms: _535  and  _536
REMARK  198  A    between atoms: _535  and  _538
REMARK  199  A    between atoms: _538  and  _539
REMARK  200  A    between atoms: _544  and  _546
REMARK  201  A    between atoms: _546  and  _547
REMARK  202  A    between atoms: _546  and  _549
REMARK  203  A    between atoms: _549  and  _550
REMARK  204  A    between atoms: _550  and  _551
REMARK  205  A    between atoms: _551  and  _552
REMARK  206  A    between atoms: _552  and  ZN_793
REMARK  207  A    between atoms: _554  and  _556
REMARK  208  A    between atoms: _556  and  _557
REMARK  209  A    between atoms: _560  and  _562
REMARK  210  A    between atoms: _562  and  _563
REMARK  211  A    between atoms: _562  and  _565
REMARK  212  A    between atoms: _565  and  _566
REMARK  213  A    between atoms: _569  and  _571
REMARK  214  A    between atoms: _571  and  _572
REMARK  215  A    between atoms: _575  and  _577
REMARK  216  A    between atoms: _577  and  _578
REMARK  217  A    between atoms: _577  and  _580
REMARK  218  A    between atoms: _580  and  _581
REMARK  219  A    between atoms: _584  and  _586
REMARK  220  A    between atoms: _586  and  _587
REMARK  221  A    between atoms: _586  and  _589
REMARK  222  A    between atoms: _589  and  _590
REMARK  223  A    between atoms: _590  and  _591
REMARK  224  A    between atoms: _591  and  _592
REMARK  225  A    between atoms: _592  and  _593
REMARK  226  A    between atoms: _597  and  _599
REMARK  227  A    between atoms: _599  and  _600
REMARK  228  A    between atoms: _599  and  _602
REMARK  229  A    between atoms: _602  and  _603
REMARK  230  A    between atoms: _609  and  _611
REMARK  231  A    between atoms: _611  and  _612
REMARK  232  A    between atoms: _611  and  _614
REMARK  233  A    between atoms: _614  and  _615
REMARK  234  A    between atoms: _621  and  _623
REMARK  235  A    between atoms: _623  and  _624
REMARK  236  A    between atoms: _623  and  _626
REMARK  237  A    between atoms: _626  and  _627
REMARK  238  A    between atoms: _629  and  _631
REMARK  239  A    between atoms: _631  and  _632
REMARK  240  A    between atoms: _631  and  _634
REMARK  241  A    between atoms: _637  and  _639
REMARK  242  A    between atoms: _639  and  _640
REMARK  243  A    between atoms: _639  and  _642
REMARK  244  A    between atoms: _642  and  _643
REMARK  245  A    between atoms: _643  and  _644
REMARK  246  A    between atoms: _644  and  _645
REMARK  247  A    between atoms: _645  and  _646
REMARK  248  A    between atoms: _650  and  _652
REMARK  249  A    between atoms: _652  and  _653
REMARK  250  A    between atoms: _652  and  _655
REMARK  251  A    between atoms: _655  and  _656
REMARK  252  A    between atoms: _662  and  _664
REMARK  253  A    between atoms: _664  and  _665
REMARK  254  A    between atoms: _664  and  _667
REMARK  255  A    between atoms: _667  and  _668
REMARK  256  A    between atoms: _673  and  _675
REMARK  257  A    between atoms: _675  and  _676
REMARK  258  A    between atoms: _675  and  _678
REMARK  259  A    between atoms: _678  and  _679
REMARK  260  A    between atoms: _681  and  _683
REMARK  261  A    between atoms: _683  and  _684
REMARK  262  A    between atoms: _683  and  _686
REMARK  263  A    between atoms: _686  and  _687
REMARK  264  A    between atoms: _689  and  _691
REMARK  265  A    between atoms: _691  and  _692
REMARK  266  A    between atoms: _691  and  _694
REMARK  267  A    between atoms: _698  and  _699
REMARK  268  A    between atoms: _704  and  _706
REMARK  269  A    between atoms: _706  and  _707
REMARK  270  A    between atoms: _706  and  _709
REMARK  271  A    between atoms: _709  and  _710
REMARK  272  A    between atoms: _715  and  _716
REMARK  273  A    between atoms: _718  and  _720
REMARK  274  A    between atoms: _720  and  _721
REMARK  275  A    between atoms: _720  and  _723
REMARK  276  A    between atoms: _723  and  _724
REMARK  277  A    between atoms: _724  and  _725
REMARK  278  A    between atoms: _725  and  _726
REMARK  279  A    between atoms: _735  and  _737
REMARK  280  A    between atoms: _737  and  _738
REMARK  281  A    between atoms: _737  and  _740
REMARK  282  A    between atoms: _740  and  _741
REMARK  283  A    between atoms: _746  and  _747
REMARK  284  A    between atoms: _749  and  _751
REMARK  285  A    between atoms: _751  and  _752
REMARK  286  A    between atoms: _751  and  _754
REMARK  287  A    between atoms: _754  and  _755
REMARK  288  A    between atoms: _761  and  _763
REMARK  289  A    between atoms: _763  and  _764
REMARK  290  A    between atoms: _763  and  _766
REMARK  291  A    between atoms: _766  and  _767
REMARK  292  A    between atoms: _769  and  _771
REMARK  293  A    between atoms: _771  and  _772
REMARK  294  A    between atoms: _771  and  _774
REMARK  295  A    between atoms: _774  and  _775
REMARK  296  A    between atoms: _781  and  _783
REMARK  297  A    between atoms: _783  and  _784
REMARK  298  A    between atoms: _783  and  _786
REMARK  299  A    between atoms: _786  and  _787
REMARK  300  A    between atoms: _787  and  _788
REMARK                            x       y       z     vdW  Elec       q    Type
REMARK                         _______ _______ _______ _____ _____    ______ ____
ROOT
ATOM      1  CA  THR A   1      12.127 -21.590 -26.056  0.00  0.00    +0.160 C 
ENDROOT
BRANCH   1   2
ATOM      2  N   THR A   1      11.185 -22.489 -25.362  0.00  0.00    -0.237 NA
ATOM      3  H   THR A   1      11.162 -22.486 -24.322  0.00  0.00    +0.142 HD
ENDBRANCH   1   2
BRANCH   1   4
ATOM      4  CB  THR A   1      12.969 -20.789 -25.034  0.00  0.00    +0.134 C 
ATOM      5  CG2 THR A   1      13.970 -19.863 -25.744  0.00  0.00    +0.034 C 
BRANCH   4   6
ATOM      6  OG1 THR A   1      12.091 -19.982 -24.259  0.00  0.00    -0.383 OA
ATOM      7  HG1 THR A   1      11.444 -20.562 -23.784  0.00  0.00    +0.210 HD
ENDBRANCH   4   6
ENDBRANCH   1   4
BRANCH   1   8
ATOM      8  C   THR A   1      13.046 -22.406 -26.978  0.00  0.00    +0.227 C 
ATOM      9  O   THR A   1      13.236 -22.063 -28.150  0.00  0.00    -0.287 OA
ENDBRANCH   1   8
TORSDOF 4
REMARK  Name = ../refined-set-2016/4ca5/4ca5_pocket.pdb
REMARK  300 active torsions:
REMARK  status: ('A' for Active; 'I' for Inactive)
REMARK    1  A    between atoms: _1  and  _3
REMARK    2  A    between atoms: _3  and  _4
REMARK    3  A    between atoms: _3  and  _6
REMARK    4  A    between atoms: _6  and  _7
REMARK    5  A    between atoms: _12  and  _14
REMARK    6  A    between atoms: _14  and  _15
REMARK    7  A    between atoms: _14  and  _17
REMARK    8  A    between atoms: _17  and  _18
REMARK    9  A    between atoms: _23  and  _25
REMARK   10  A    between atoms: _25  and  _26
REMARK   11  A    between atoms: _25  and  _28
REMARK   12  A    between atoms: _28  and  _29
REMARK   13  A    between atoms: _29  and  _30
REMARK   14  A    between atoms: _33  and  _35
REMARK   15  A    between atoms: _35  and  _36
REMARK   16  A    between atoms: _35  and  _38
REMARK   17  A    between atoms: _38  and  _39
REMARK   18  A    between atoms: _44  and  _45
REMARK   19  A    between atoms: _47  and  _49
REMARK   20  A    between atoms: _49  and  _50
REMARK   21  A    between atoms: _49  and  _52
REMARK   22  A    between atoms: _52  and  _53
REMARK   23  A    between atoms: _53  and  _54
REMARK   24  A    between atoms: _57  and  _59
REMARK   25  A    between atoms: _59  and  _60
REMARK   26  A    between atoms: _59  and  _62
REMARK   27  A    between atoms: _62  and  _63
REMARK   28  A    between atoms: _66  and  _68
REMARK   29  A    between atoms: _68  and  _69
REMARK   30  A    between atoms: _71  and  _73
REMARK   31  A    between atoms: _73  and  _74
REMARK   32  A    between atoms: _73  and  _76
REMARK   33  A    between atoms: _76  and  _77
REMARK   34  A    between atoms: _82  and  _84
REMARK   35  A    between atoms: _84  and  _85
REMARK   36  A    between atoms: _84  and  _87
REMARK   37  A    between atoms: _87  and  _88
REMARK   38  A    between atoms: _88  and  _89
REMARK   39  A    between atoms: _91  and  _93
REMARK   40  A    between atoms: _93  and  _94
REMARK   41  A    between atoms: _93  and  _96
REMARK   42  A    between atoms: _96  and  _97
REMARK   43  A    between atoms: _107  and  _109
REMARK   44  A    between atoms: _109  and  _110
REMARK   45  A    between atoms: _109  and  _112
REMARK   46  A    between atoms: _112  and  _113
REMARK   47  A    between atoms: _113  and  _114
REMARK   48  A    between atoms: _119  and  _121
REMARK   49  A    between atoms: _121  and  _122
REMARK   50  A    between atoms: _121  and  _124
REMARK   51  A    between atoms: _124  and  _125
REMARK   52  A    between atoms: _128  and  _130
REMARK   53  A    between atoms: _130  and  _131
REMARK   54  A    between atoms: _130  and  _133
REMARK   55  A    between atoms: _133  and  _134
REMARK   56  A    between atoms: _144  and  _146
REMARK   57  A    between atoms: _146  and  _147
REMARK   58  A    between atoms: _146  and  _149
REMARK   59  A    between atoms: _149  and  _150
REMARK   60  A    between atoms: _152  and  _154
REMARK   61  A    between atoms: _154  and  _155
REMARK   62  A    between atoms: _154  and  _157
REMARK   63  A    between atoms: _157  and  _158
REMARK   64  A    between atoms: _163  and  _165
REMARK   65  A    between atoms: _165  and  _166
REMARK   66  A    between atoms: _165  and  _168
REMARK   67  A    between atoms: _171  and  _173
REMARK   68  A    between atoms: _173  and  _174
REMARK   69  A    between atoms: _173  and  _176
REMARK   70  A    between atoms: _178  and  _180
REMARK   71  A    between atoms: _180  and  _181
REMARK   72  A    between atoms: _180  and  _183
REMARK   73  A    between atoms: _183  and  _184
REMARK   74  A    between atoms: _189  and  _191
REMARK   75  A    between atoms: _191  and  _192
REMARK   76  A    between atoms: _195  and  _197
REMARK   77  A    between atoms: _197  and  _198
REMARK   78  A    between atoms: _197  and  _200
REMARK   79  A    between atoms: _200  and  _201
REMARK   80  A    between atoms: _203  and  _205
REMARK   81  A    between atoms: _205  and  _206
REMARK   82  A    between atoms: _209  and  _211
REMARK   83  A    between atoms: _211  and  _212
REMARK   84  A    between atoms: _211  and  _214
REMARK   85  A    between atoms: _214  and  _215
REMARK   86  A    between atoms: _225  and  _227
REMARK   87  A    between atoms: _227  and  _228
REMARK   88  A    between atoms: _227  and  _230
REMARK   89  A    between atoms: _230  and  _231
REMARK   90  A    between atoms: _234  and  _236
REMARK   91  A    between atoms: _236  and  _237
REMARK   92  A    between atoms: _236  and  _239
REMARK   93  A    between atoms: _239  and  _240
REMARK   94  A    between atoms: _245  and  _246
REMARK   95  A    between atoms: _248  and  _250
REMARK   96  A    between atoms: _250  and  _251
REMARK   97  A    between atoms: _250  and  _253
REMARK   98  A    between atoms: _253  and  _254
REMARK   99  A    between atoms: _254  and  _255
REMARK  100  A    between atoms: _255  and  _256
REMARK  101  A    between atoms: _265  and  _267
REMARK  102  A    between atoms: _267  and  _268
REMARK  103  A    between atoms: _267  and  _270
REMARK  104  A    between atoms: _270  and  _271
REMARK  105  A    between atoms: _274  and  _276
REMARK  106  A    between atoms: _276  and  _277
REMARK  107  A    between atoms: _276  and  _279
REMARK  108  A    between atoms: _279  and  _280
REMARK  109  A    between atoms: _280  and  _281
REMARK  110  A    between atoms: _281  and  _282
REMARK  111  A    between atoms: _282  and  _283
REMARK  112  A    between atoms: _287  and  _289
REMARK  113  A    between atoms: _289  and  _290
REMARK  114  A    between atoms: _289  and  _292
REMARK  115  A    between atoms: _292  and  _293
REMARK  116  A    between atoms: _293  and  _294
REMARK  117  A    between atoms: _299  and  _301
REMARK  118  A    between atoms: _301  and  _302
REMARK  119  A    between atoms: _301  and  _304
REMARK  120  A    between atoms: _304  and  _305
REMARK  121  A    between atoms: _310  and  _312
REMARK  122  A    between atoms: _312  and  _313
REMARK  123  A    between atoms: _312  and  _315
REMARK  124  A    between atoms: _315  and  _316
REMARK  125  A    between atoms: _319  and  _321
REMARK  126  A    between atoms: _321  and  _322
REMARK  127  A    between atoms: _321  and  _324
REMARK  128  A    between atoms: _324  and  _325
REMARK  129  A    between atoms: _325  and  _326
REMARK  130  A    between atoms: _329  and  _331
REMARK  131  A    between atoms: _331  and  _332
REMARK  132  A    between atoms: _331  and  _334
REMARK  133  A    between atoms: _334  and  _335
REMARK  134  A    between atoms: _338  and  _340
REMARK  135  A    between atoms: _340  and  _341
REMARK  136  A    between atoms: _340  and  _343
REMARK  137  A    between atoms: _346  and  _348
REMARK  138  A    between atoms: _348  and  _349
REMARK  139  A    between atoms: _348  and  _351
REMARK  140  A    between atoms: _354  and  _356
REMARK  141  A    between atoms: _356  and  _357
REMARK  142  A    between atoms: _360  and  _362
REMARK  143  A    between atoms: _362  and  _363
REMARK  144  A    between atoms: _362  and  _365
REMARK  145  A    between atoms: _365  and  _366
REMARK  146  A    between atoms: _371  and  _373
REMARK  147  A    between atoms: _384  and  _387
REMARK  148  A    between atoms: _387  and  _388
REMARK  149  A    between atoms: _388  and  _389
REMARK  150  A    between atoms: _394  and  _397
REMARK  151  A    between atoms: _397  and  _398
REMARK  152  A    between atoms: _398  and  _399
REMARK  153  A    between atoms: _408  and  _409
REMARK  154  A    between atoms: _417  and  _419
REMARK  155  A    between atoms: _419  and  _420
REMARK  156  A    between atoms: _419  and  _422
REMARK  157  A    between atoms: _422  and  _423
REMARK  158  A    between atoms: _426  and  _428
REMARK  159  A    between atoms: _428  and  _429
REMARK  160  A    between atoms: _428  and  _431
REMARK  161  A    between atoms: _431  and  _432
REMARK  162  A    between atoms: _437  and  _438
REMARK  163  A    between atoms: _440  and  _442
REMARK  164  A    between atoms: _442  and  _443
REMARK  165  A    between atoms: _442  and  _445
REMARK  166  A    between atoms: _445  and  _446
REMARK  167  A    between atoms: _452  and  _454
REMARK  168  A    between atoms: _454  and  _455
REMARK  169  A    between atoms: _454  and  _457
REMARK  170  A    between atoms: _457  and  _458
REMARK  171  A    between atoms: _463  and  _464
REMARK  172  A    between atoms: _466  and  _468
REMARK  173  A    between atoms: _468  and  _469
REMARK  174  A    between atoms: _468  and  _471
REMARK  175  A    between atoms: _471  and  _472
REMARK  176  A    between atoms: _472  and  _473
REMARK  177  A    between atoms: _473  and  _474
REMARK  178  A    between atoms: _483  and  _485
REMARK  179  A    between atoms: _485  and  _486
REMARK  180  A    between atoms: _485  and  _488
REMARK  181  A    between atoms: _488  and  _489
REMARK  182  A    between atoms: _489  and  _490
REMARK  183  A    between atoms: _493  and  _495
REMARK  184  A    between atoms: _495  and  _496
REMARK  185  A    between atoms: _498  and  _500
REMARK  186  A    between atoms: _500  and  _501
REMARK  187  A    between atoms: _500  and  _503
REMARK  188  A    between atoms: _503  and  _504
REMARK  189  A    between atoms: _510  and  _511
REMARK  190  A    between atoms: _516  and  _518
REMARK  191  A    between atoms: _518  and  _519
REMARK  192  A    between atoms: _521  and  _523
REMARK  193  A    between atoms: _523  and  _524
REMARK  194  A    between atoms: _523  and  _526
REMARK  195  A    between atoms: _526  and  _527
REMARK  196  A    between atoms: _533  and  _535
REMARK  197  A    between atoms: _535  and  _536
REMARK  198  A    between atoms: _535  and  _538
REMARK  199  A    between atoms: _538  and  _539
REMARK  200  A    between atoms: _544  and  _546
REMARK  201  A    between atoms: _546  and  _547
REMARK  202  A    between atoms: _546  and  _549
REMARK  203  A    between atoms: _549  and  _550
REMARK  204  A    between atoms: _550  and  _551
REMARK  205  A    between atoms: _551  and  _552
REMARK  206  A    between atoms: _552  and  ZN_793
REMARK  207  A    between atoms: _554  and  _556
REMARK  208  A    between atoms: _556  and  _557
REMARK  209  A    between atoms: _560  and  _562
REMARK  210  A    between atoms: _562  and  _563
REMARK  211  A    between atoms: _562  and  _565
REMARK  212  A    between atoms: _565  and  _566
REMARK  213  A    between atoms: _569  and  _571
REMARK  214  A    between atoms: _571  and  _572
REMARK  215  A    between atoms: _575  and  _577
REMARK  216  A    between atoms: _577  and  _578
REMARK  217  A    between atoms: _577  and  _580
REMARK  218  A    between atoms: _580  and  _581
REMARK  219  A    between atoms: _584  and  _586
REMARK  220  A    between atoms: _586  and  _587
REMARK  221  A    between atoms: _586  and  _589
REMARK  222  A    between atoms: _589  and  _590
REMARK  223  A    between atoms: _590  and  _591
REMARK  224  A    between atoms: _591  and  _592
REMARK  225  A    between atoms: _592  and  _593
REMARK  226  A    between atoms: _597  and  _599
REMARK  227  A    between atoms: _599  and  _600
REMARK  228  A    between atoms: _599  and  _602
REMARK  229  A    between atoms: _602  and  _603
REMARK  230  A    between atoms: _609  and  _611
REMARK  231  A    between atoms: _611  and  _612
REMARK  232  A    between atoms: _611  and  _614
REMARK  233  A    between atoms: _614  and  _615
REMARK  234  A    between atoms: _621  and  _623
REMARK  235  A    between atoms: _623  and  _624
REMARK  236  A    between atoms: _623  and  _626
REMARK  237  A    between atoms: _626  and  _627
REMARK  238  A    between atoms: _629  and  _631
REMARK  239  A    between atoms: _631  and  _632
REMARK  240  A    between atoms: _631  and  _634
REMARK  241  A    between atoms: _637  and  _639
REMARK  242  A    between atoms: _639  and  _640
REMARK  243  A    between atoms: _639  and  _642
REMARK  244  A    between atoms: _642  and  _643
REMARK  245  A    between atoms: _643  and  _644
REMARK  246  A    between atoms: _644  and  _645
REMARK  247  A    between atoms: _645  and  _646
REMARK  248  A    between atoms: _650  and  _652
REMARK  249  A    between atoms: _652  and  _653
REMARK  250  A    between atoms: _652  and  _655
REMARK  251  A    between atoms: _655  and  _656
REMARK  252  A    between atoms: _662  and  _664
REMARK  253  A    between atoms: _664  and  _665
REMARK  254  A    between atoms: _664  and  _667
REMARK  255  A    between atoms: _667  and  _668
REMARK  256  A    between atoms: _673  and  _675
REMARK  257  A    between atoms: _675  and  _676
REMARK  258  A    between atoms: _675  and  _678
REMARK  259  A    between atoms: _678  and  _679
REMARK  260  A    between atoms: _681  and  _683
REMARK  261  A    between atoms: _683  and  _684
REMARK  262  A    between atoms: _683  and  _686
REMARK  263  A    between atoms: _686  and  _687
REMARK  264  A    between atoms: _689  and  _691
REMARK  265  A    between atoms: _691  and  _692
REMARK  266  A    between atoms: _691  and  _694
REMARK  267  A    between atoms: _698  and  _699
REMARK  268  A    between atoms: _704  and  _706
REMARK  269  A    between atoms: _706  and  _707
REMARK  270  A    between atoms: _706  and  _709
REMARK  271  A    between atoms: _709  and  _710
REMARK  272  A    between atoms: _715  and  _716
REMARK  273  A    between atoms: _718  and  _720
REMARK  274  A    between atoms: _720  and  _721
REMARK  275  A    between atoms: _720  and  _723
REMARK  276  A    between atoms: _723  and  _724
REMARK  277  A    between atoms: _724  and  _725
REMARK  278  A    between atoms: _725  and  _726
REMARK  279  A    between atoms: _735  and  _737
REMARK  280  A    between atoms: _737  and  _738
REMARK  281  A    between atoms: _737  and  _740
REMARK  282  A    between atoms: _740  and  _741
REMARK  283  A    between atoms: _746  and  _747
REMARK  284  A    between atoms: _749  and  _751
REMARK  285  A    between atoms: _751  and  _752
REMARK  286  A    between atoms: _751  and  _754
REMARK  287  A    between atoms: _754  and  _755
REMARK  288  A    between atoms: _761  and  _763
REMARK  289  A    between atoms: _763  and  _764
REMARK  290  A    between atoms: _763  and  _766
REMARK  291  A    between atoms: _766  and  _767
REMARK  292  A    between atoms: _769  and  _771
REMARK  293  A    between atoms: _771  and  _772
REMARK  294  A    between atoms: _771  and  _774
REMARK  295  A    between atoms: _774  and  _775
REMARK  296  A    between atoms: _781  and  _783
REMARK  297  A    between atoms: _783  and  _784
REMARK  298  A    between atoms: _783  and  _786
REMARK  299  A    between atoms: _786  and  _787
REMARK  300  A    between atoms: _787  and  _788
REMARK                            x       y       z     vdW  Elec       q    Type
REMARK                         _______ _______ _______ _____ _____    ______ ____
ROOT
ATOM      1  CA  MET A   3       7.750 -17.964 -29.557  0.00  0.00    +0.149 C 
ENDROOT
BRANCH   1   3
ATOM      2  C   ASN A   2       9.538 -17.638 -31.205  0.00  0.00    +0.241 C 
ATOM      3  N   MET A   3       9.156 -17.798 -29.937  0.00  0.00    -0.297 N 
ATOM      4  H   MET A   3       9.881 -17.805 -29.192  0.00  0.00    +0.150 HD
ATOM      5  O   ASN A   2       8.752 -17.522 -32.149  0.00  0.00    -0.273 OA
BRANCH   2   6
ATOM      6  CA  ASN A   2      11.039 -17.558 -31.450  0.00  0.00    +0.158 C 
BRANCH   6   9
ATOM      7  C   GLY A   1      12.501 -18.958 -32.838  0.00  0.00    +0.240 C 
ATOM      8  O   GLY A   1      13.351 -19.122 -31.959  0.00  0.00    -0.274 OA
ATOM      9  N   ASN A   2      11.339 -18.339 -32.640  0.00  0.00    -0.297 N 
ATOM     10  H   ASN A   2      10.607 -18.418 -33.375  0.00  0.00    +0.150 HD
BRANCH   7  11
ATOM     11  CA  GLY A   1      12.717 -19.506 -34.238  0.00  0.00    +0.169 C 
BRANCH  11  12
ATOM     12  N   GLY A   1      11.672 -19.126 -35.181  0.00  0.00    -0.236 NA
ATOM     13  H   GLY A   1      10.837 -19.735 -35.294  0.00  0.00    +0.142 HD
ENDBRANCH  11  12
ENDBRANCH   7  11
ENDBRANCH   6   9
BRANCH   6  14
ATOM     14  CB  ASN A   2      11.475 -16.113 -31.684  0.00  0.00    +0.114 C 
BRANCH  14  15
ATOM     15  CG  ASN A   2      11.083 -15.181 -30.556  0.00  0.00    +0.222 C 
ATOM     16  ND2 ASN A   2      12.027 -14.895 -29.675  0.00  0.00    -0.329 N 
ATOM     17 HD21 ASN A   2      11.831 -14.230 -28.900  0.00  0.00    +0.145 HD
ATOM     18 HD22 ASN A   2      12.966 -15.336 -29.757  0.00  0.00    +0.145 HD
ATOM     19  OD1 ASN A   2       9.965 -14.690 -30.503  0.00  0.00    -0.275 OA
ENDBRANCH  14  15
ENDBRANCH   6  14
ENDBRANCH   2   6
ENDBRANCH   1   3
BRANCH   1  20
ATOM     20  C   MET A   3       6.800 -16.876 -30.100  0.00  0.00    +0.241 C 
ATOM     21  N   TRP A   4       7.283 -15.634 -30.166  0.00  0.00    -0.298 N 
ATOM     22  H   TRP A   4       8.277 -15.470 -29.909  0.00  0.00    +0.150 HD
ATOM     23  O   MET A   3       5.651 -17.172 -30.446  0.00  0.00    -0.273 OA
BRANCH  21  24
ATOM     24  CA  TRP A   4       6.466 -14.493 -30.587  0.00  0.00    +0.141 C 
BRANCH  24  25
ATOM     25  C   TRP A   4       6.837 -13.979 -31.978  0.00  0.00    +0.227 C 
ATOM     26  O   TRP A   4       6.312 -12.948 -32.407  0.00  0.00    -0.286 OA
ENDBRANCH  24  25
BRANCH  24  27
ATOM     27  CB  TRP A   4       6.560 -13.369 -29.538  0.00  0.00    +0.056 C 
BRANCH  27  28
ATOM     28  CG  TRP A   4       6.270 -13.949 -28.181  0.00  0.00    -0.002 A 
ATOM     29  CD2 TRP A   4       7.223 -14.508 -27.263  0.00  0.00    +0.013 A 
ATOM     30  CE2 TRP A   4       6.493 -15.005 -26.157  0.00  0.00    +0.056 A 
ATOM     31  CZ2 TRP A   4       7.112 -15.609 -25.056  0.00  0.00    +0.017 A 
ATOM     32  CH2 TRP A   4       8.485 -15.717 -25.074  0.00  0.00    +0.001 A 
ATOM     33  CZ3 TRP A   4       9.248 -15.224 -26.158  0.00  0.00    +0.000 A 
ATOM     34  NE1 TRP A   4       5.164 -14.757 -26.398  0.00  0.00    -0.352 N 
ATOM     35  HE1 TRP A   4       4.379 -14.991 -25.757  0.00  0.00    +0.166 HD
ATOM     36  CE3 TRP A   4       8.625 -14.626 -27.262  0.00  0.00    +0.001 A 
ATOM     37  CD1 TRP A   4       5.040 -14.146 -27.630  0.00  0.00    +0.068 A 
ENDBRANCH  27  28
ENDBRANCH  24  27
ENDBRANCH  21  24
ENDBRANCH   1  20
BRANCH   1  38
ATOM     38  CB  MET A   3       7.612 -18.091 -28.029  0.00  0.00    +0.041 C 
BRANCH  38  39
ATOM     39  CG  MET A   3       6.186 -18.371 -27.561  0.00  0.00    +0.060 C 
BRANCH  39  40
ATOM     40  SD  MET A   3       5.580 -19.932 -28.218  0.00  0.00    -0.139 S 
ATOM     41  CE  MET A   3       6.310 -21.085 -27.044  0.00  0.00    +0.069 C 
ENDBRANCH  39  40
ENDBRANCH  38  39
ENDBRANCH   1  38
TORSDOF 15
REMARK  Name = ../refined-set-2016/4ca5/4ca5_pocket.pdb
REMARK  300 active torsions:
REMARK  status: ('A' for Active; 'I' for Inactive)
REMARK    1  A    between atoms: _1  and  _3
REMARK    2  A    between atoms: _3  and  _4
REMARK    3  A    between atoms: _3  and  _6
REMARK    4  A    between atoms: _6  and  _7
REMARK    5  A    between atoms: _12  and  _14
REMARK    6  A    between atoms: _14  and  _15
REMARK    7  A    between atoms: _14  and  _17
REMARK    8  A    between atoms: _17  and  _18
REMARK    9  A    between atoms: _23  and  _25
REMARK   10  A    between atoms: _25  and  _26
REMARK   11  A    between atoms: _25  and  _28
REMARK   12  A    between atoms: _28  and  _29
REMARK   13  A    between atoms: _29  and  _30
REMARK   14  A    between atoms: _33  and  _35
REMARK   15  A    between atoms: _35  and  _36
REMARK   16  A    between atoms: _35  and  _38
REMARK   17  A    between atoms: _38  and  _39
REMARK   18  A    between atoms: _44  and  _45
REMARK   19  A    between atoms: _47  and  _49
REMARK   20  A    between atoms: _49  and  _50
REMARK   21  A    between atoms: _49  and  _52
REMARK   22  A    between atoms: _52  and  _53
REMARK   23  A    between atoms: _53  and  _54
REMARK   24  A    between atoms: _57  and  _59
REMARK   25  A    between atoms: _59  and  _60
REMARK   26  A    between atoms: _59  and  _62
REMARK   27  A    between atoms: _62  and  _63
REMARK   28  A    between atoms: _66  and  _68
REMARK   29  A    between atoms: _68  and  _69
REMARK   30  A    between atoms: _71  and  _73
REMARK   31  A    between atoms: _73  and  _74
REMARK   32  A    between atoms: _73  and  _76
REMARK   33  A    between atoms: _76  and  _77
REMARK   34  A    between atoms: _82  and  _84
REMARK   35  A    between atoms: _84  and  _85
REMARK   36  A    between atoms: _84  and  _87
REMARK   37  A    between atoms: _87  and  _88
REMARK   38  A    between atoms: _88  and  _89
REMARK   39  A    between atoms: _91  and  _93
REMARK   40  A    between atoms: _93  and  _94
REMARK   41  A    between atoms: _93  and  _96
REMARK   42  A    between atoms: _96  and  _97
REMARK   43  A    between atoms: _107  and  _109
REMARK   44  A    between atoms: _109  and  _110
REMARK   45  A    between atoms: _109  and  _112
REMARK   46  A    between atoms: _112  and  _113
REMARK   47  A    between atoms: _113  and  _114
REMARK   48  A    between atoms: _119  and  _121
REMARK   49  A    between atoms: _121  and  _122
REMARK   50  A    between atoms: _121  and  _124
REMARK   51  A    between atoms: _124  and  _125
REMARK   52  A    between atoms: _128  and  _130
REMARK   53  A    between atoms: _130  and  _131
REMARK   54  A    between atoms: _130  and  _133
REMARK   55  A    between atoms: _133  and  _134
REMARK   56  A    between atoms: _144  and  _146
REMARK   57  A    between atoms: _146  and  _147
REMARK   58  A    between atoms: _146  and  _149
REMARK   59  A    between atoms: _149  and  _150
REMARK   60  A    between atoms: _152  and  _154
REMARK   61  A    between atoms: _154  and  _155
REMARK   62  A    between atoms: _154  and  _157
REMARK   63  A    between atoms: _157  and  _158
REMARK   64  A    between atoms: _163  and  _165
REMARK   65  A    between atoms: _165  and  _166
REMARK   66  A    between atoms: _165  and  _168
REMARK   67  A    between atoms: _171  and  _173
REMARK   68  A    between atoms: _173  and  _174
REMARK   69  A    between atoms: _173  and  _176
REMARK   70  A    between atoms: _178  and  _180
REMARK   71  A    between atoms: _180  and  _181
REMARK   72  A    between atoms: _180  and  _183
REMARK   73  A    between atoms: _183  and  _184
REMARK   74  A    between atoms: _189  and  _191
REMARK   75  A    between atoms: _191  and  _192
REMARK   76  A    between atoms: _195  and  _197
REMARK   77  A    between atoms: _197  and  _198
REMARK   78  A    between atoms: _197  and  _200
REMARK   79  A    between atoms: _200  and  _201
REMARK   80  A    between atoms: _203  and  _205
REMARK   81  A    between atoms: _205  and  _206
REMARK   82  A    between atoms: _209  and  _211
REMARK   83  A    between atoms: _211  and  _212
REMARK   84  A    between atoms: _211  and  _214
REMARK   85  A    between atoms: _214  and  _215
REMARK   86  A    between atoms: _225  and  _227
REMARK   87  A    between atoms: _227  and  _228
REMARK   88  A    between atoms: _227  and  _230
REMARK   89  A    between atoms: _230  and  _231
REMARK   90  A    between atoms: _234  and  _236
REMARK   91  A    between atoms: _236  and  _237
REMARK   92  A    between atoms: _236  and  _239
REMARK   93  A    between atoms: _239  and  _240
REMARK   94  A    between atoms: _245  and  _246
REMARK   95  A    between atoms: _248  and  _250
REMARK   96  A    between atoms: _250  and  _251
REMARK   97  A    between atoms: _250  and  _253
REMARK   98  A    between atoms: _253  and  _254
REMARK   99  A    between atoms: _254  and  _255
REMARK  100  A    between atoms: _255  and  _256
REMARK  101  A    between atoms: _265  and  _267
REMARK  102  A    between atoms: _267  and  _268
REMARK  103  A    between atoms: _267  and  _270
REMARK  104  A    between atoms: _270  and  _271
REMARK  105  A    between atoms: _274  and  _276
REMARK  106  A    between atoms: _276  and  _277
REMARK  107  A    between atoms: _276  and  _279
REMARK  108  A    between atoms: _279  and  _280
REMARK  109  A    between atoms: _280  and  _281
REMARK  110  A    between atoms: _281  and  _282
REMARK  111  A    between atoms: _282  and  _283
REMARK  112  A    between atoms: _287  and  _289
REMARK  113  A    between atoms: _289  and  _290
REMARK  114  A    between atoms: _289  and  _292
REMARK  115  A    between atoms: _292  and  _293
REMARK  116  A    between atoms: _293  and  _294
REMARK  117  A    between atoms: _299  and  _301
REMARK  118  A    between atoms: _301  and  _302
REMARK  119  A    between atoms: _301  and  _304
REMARK  120  A    between atoms: _304  and  _305
REMARK  121  A    between atoms: _310  and  _312
REMARK  122  A    between atoms: _312  and  _313
REMARK  123  A    between atoms: _312  and  _315
REMARK  124  A    between atoms: _315  and  _316
REMARK  125  A    between atoms: _319  and  _321
REMARK  126  A    between atoms: _321  and  _322
REMARK  127  A    between atoms: _321  and  _324
REMARK  128  A    between atoms: _324  and  _325
REMARK  129  A    between atoms: _325  and  _326
REMARK  130  A    between atoms: _329  and  _331
REMARK  131  A    between atoms: _331  and  _332
REMARK  132  A    between atoms: _331  and  _334
REMARK  133  A    between atoms: _334  and  _335
REMARK  134  A    between atoms: _338  and  _340
REMARK  135  A    between atoms: _340  and  _341
REMARK  136  A    between atoms: _340  and  _343
REMARK  137  A    between atoms: _346  and  _348
REMARK  138  A    between atoms: _348  and  _349
REMARK  139  A    between atoms: _348  and  _351
REMARK  140  A    between atoms: _354  and  _356
REMARK  141  A    between atoms: _356  and  _357
REMARK  142  A    between atoms: _360  and  _362
REMARK  143  A    between atoms: _362  and  _363
REMARK  144  A    between atoms: _362  and  _365
REMARK  145  A    between atoms: _365  and  _366
REMARK  146  A    between atoms: _371  and  _373
REMARK  147  A    between atoms: _384  and  _387
REMARK  148  A    between atoms: _387  and  _388
REMARK  149  A    between atoms: _388  and  _389
REMARK  150  A    between atoms: _394  and  _397
REMARK  151  A    between atoms: _397  and  _398
REMARK  152  A    between atoms: _398  and  _399
REMARK  153  A    between atoms: _408  and  _409
REMARK  154  A    between atoms: _417  and  _419
REMARK  155  A    between atoms: _419  and  _420
REMARK  156  A    between atoms: _419  and  _422
REMARK  157  A    between atoms: _422  and  _423
REMARK  158  A    between atoms: _426  and  _428
REMARK  159  A    between atoms: _428  and  _429
REMARK  160  A    between atoms: _428  and  _431
REMARK  161  A    between atoms: _431  and  _432
REMARK  162  A    between atoms: _437  and  _438
REMARK  163  A    between atoms: _440  and  _442
REMARK  164  A    between atoms: _442  and  _443
REMARK  165  A    between atoms: _442  and  _445
REMARK  166  A    between atoms: _445  and  _446
REMARK  167  A    between atoms: _452  and  _454
REMARK  168  A    between atoms: _454  and  _455
REMARK  169  A    between atoms: _454  and  _457
REMARK  170  A    between atoms: _457  and  _458
REMARK  171  A    between atoms: _463  and  _464
REMARK  172  A    between atoms: _466  and  _468
REMARK  173  A    between atoms: _468  and  _469
REMARK  174  A    between atoms: _468  and  _471
REMARK  175  A    between atoms: _471  and  _472
REMARK  176  A    between atoms: _472  and  _473
REMARK  177  A    between atoms: _473  and  _474
REMARK  178  A    between atoms: _483  and  _485
REMARK  179  A    between atoms: _485  and  _486
REMARK  180  A    between atoms: _485  and  _488
REMARK  181  A    between atoms: _488  and  _489
REMARK  182  A    between atoms: _489  and  _490
REMARK  183  A    between atoms: _493  and  _495
REMARK  184  A    between atoms: _495  and  _496
REMARK  185  A    between atoms: _498  and  _500
REMARK  186  A    between atoms: _500  and  _501
REMARK  187  A    between atoms: _500  and  _503
REMARK  188  A    between atoms: _503  and  _504
REMARK  189  A    between atoms: _510  and  _511
REMARK  190  A    between atoms: _516  and  _518
REMARK  191  A    between atoms: _518  and  _519
REMARK  192  A    between atoms: _521  and  _523
REMARK  193  A    between atoms: _523  and  _524
REMARK  194  A    between atoms: _523  and  _526
REMARK  195  A    between atoms: _526  and  _527
REMARK  196  A    between atoms: _533  and  _535
REMARK  197  A    between atoms: _535  and  _536
REMARK  198  A    between atoms: _535  and  _538
REMARK  199  A    between atoms: _538  and  _539
REMARK  200  A    between atoms: _544  and  _546
REMARK  201  A    between atoms: _546  and  _547
REMARK  202  A    between atoms: _546  and  _549
REMARK  203  A    between atoms: _549  and  _550
REMARK  204  A    between atoms: _550  and  _551
REMARK  205  A    between atoms: _551  and  _552
REMARK  206  A    between atoms: _552  and  ZN_793
REMARK  207  A    between atoms: _554  and  _556
REMARK  208  A    between atoms: _556  and  _557
REMARK  209  A    between atoms: _560  and  _562
REMARK  210  A    between atoms: _562  and  _563
REMARK  211  A    between atoms: _562  and  _565
REMARK  212  A    between atoms: _565  and  _566
REMARK  213  A    between atoms: _569  and  _571
REMARK  214  A    between atoms: _571  and  _572
REMARK  215  A    between atoms: _575  and  _577
REMARK  216  A    between atoms: _577  and  _578
REMARK  217  A    between atoms: _577  and  _580
REMARK  218  A    between atoms: _580  and  _581
REMARK  219  A    between atoms: _584  and  _586
REMARK  220  A    between atoms: _586  and  _587
REMARK  221  A    between atoms: _586  and  _589
REMARK  222  A    between atoms: _589  and  _590
REMARK  223  A    between atoms: _590  and  _591
REMARK  224  A    between atoms: _591  and  _592
REMARK  225  A    between atoms: _592  and  _593
REMARK  226  A    between atoms: _597  and  _599
REMARK  227  A    between atoms: _599  and  _600
REMARK  228  A    between atoms: _599  and  _602
REMARK  229  A    between atoms: _602  and  _603
REMARK  230  A    between atoms: _609  and  _611
REMARK  231  A    between atoms: _611  and  _612
REMARK  232  A    between atoms: _611  and  _614
REMARK  233  A    between atoms: _614  and  _615
REMARK  234  A    between atoms: _621  and  _623
REMARK  235  A    between atoms: _623  and  _624
REMARK  236  A    between atoms: _623  and  _626
REMARK  237  A    between atoms: _626  and  _627
REMARK  238  A    between atoms: _629  and  _631
REMARK  239  A    between atoms: _631  and  _632
REMARK  240  A    between atoms: _631  and  _634
REMARK  241  A    between atoms: _637  and  _639
REMARK  242  A    between atoms: _639  and  _640
REMARK  243  A    between atoms: _639  and  _642
REMARK  244  A    between atoms: _642  and  _643
REMARK  245  A    between atoms: _643  and  _644
REMARK  246  A    between atoms: _644  and  _645
REMARK  247  A    between atoms: _645  and  _646
REMARK  248  A    between atoms: _650  and  _652
REMARK  249  A    between atoms: _652  and  _653
REMARK  250  A    between atoms: _652  and  _655
REMARK  251  A    between atoms: _655  and  _656
REMARK  252  A    between atoms: _662  and  _664
REMARK  253  A    between atoms: _664  and  _665
REMARK  254  A    between atoms: _664  and  _667
REMARK  255  A    between atoms: _667  and  _668
REMARK  256  A    between atoms: _673  and  _675
REMARK  257  A    between atoms: _675  and  _676
REMARK  258  A    between atoms: _675  and  _678
REMARK  259  A    between atoms: _678  and  _679
REMARK  260  A    between atoms: _681  and  _683
REMARK  261  A    between atoms: _683  and  _684
REMARK  262  A    between atoms: _683  and  _686
REMARK  263  A    between atoms: _686  and  _687
REMARK  264  A    between atoms: _689  and  _691
REMARK  265  A    between atoms: _691  and  _692
REMARK  266  A    between atoms: _691  and  _694
REMARK  267  A    between atoms: _698  and  _699
REMARK  268  A    between atoms: _704  and  _706
REMARK  269  A    between atoms: _706  and  _707
REMARK  270  A    between atoms: _706  and  _709
REMARK  271  A    between atoms: _709  and  _710
REMARK  272  A    between atoms: _715  and  _716
REMARK  273  A    between atoms: _718  and  _720
REMARK  274  A    between atoms: _720  and  _721
REMARK  275  A    between atoms: _720  and  _723
REMARK  276  A    between atoms: _723  and  _724
REMARK  277  A    between atoms: _724  and  _725
REMARK  278  A    between atoms: _725  and  _726
REMARK  279  A    between atoms: _735  and  _737
REMARK  280  A    between atoms: _737  and  _738
REMARK  281  A    between atoms: _737  and  _740
REMARK  282  A    between atoms: _740  and  _741
REMARK  283  A    between atoms: _746  and  _747
REMARK  284  A    between atoms: _749  and  _751
REMARK  285  A    between atoms: _751  and  _752
REMARK  286  A    between atoms: _751  and  _754
REMARK  287  A    between atoms: _754  and  _755
REMARK  288  A    between atoms: _761  and  _763
REMARK  289  A    between atoms: _763  and  _764
REMARK  290  A    between atoms: _763  and  _766
REMARK  291  A    between atoms: _766  and  _767
REMARK  292  A    between atoms: _769  and  _771
REMARK  293  A    between atoms: _771  and  _772
REMARK  294  A    between atoms: _771  and  _774
REMARK  295  A    between atoms: _774  and  _775
REMARK  296  A    between atoms: _781  and  _783
REMARK  297  A    between atoms: _783  and  _784
REMARK  298  A    between atoms: _783  and  _786
REMARK  299  A    between atoms: _786  and  _787
REMARK  300  A    between atoms: _787  and  _788
REMARK                            x       y       z     vdW  Elec       q    Type
REMARK                         _______ _______ _______ _____ _____    ______ ____
ROOT
ATOM      1  CA  TRP A   3      14.396 -14.321 -35.995  0.00  0.00    +0.153 C 
ENDROOT
BRANCH   1   2
ATOM      2  C   TRP A   3      15.720 -15.052 -36.142  0.00  0.00    +0.241 C 
ATOM      3  N   SER A   4      16.738 -14.684 -35.367  0.00  0.00    -0.295 N 
ATOM      4  H   SER A   4      16.590 -14.051 -34.555  0.00  0.00    +0.150 HD
ATOM      5  O   TRP A   3      15.821 -15.972 -36.965  0.00  0.00    -0.273 OA
BRANCH   3   6
ATOM      6  CA  SER A   4      18.079 -15.197 -35.690  0.00  0.00    +0.178 C 
BRANCH   6   7
ATOM      7  C   SER A   4      18.299 -16.681 -35.391  0.00  0.00    +0.243 C 
ATOM      8  N   ASN A   5      17.354 -17.315 -34.687  0.00  0.00    -0.298 N 
ATOM      9  H   ASN A   5      16.550 -16.778 -34.303  0.00  0.00    +0.150 HD
ATOM     10  O   SER A   4      19.314 -17.238 -35.811  0.00  0.00    -0.273 OA
BRANCH   8  11
ATOM     11  CA  ASN A   5      17.440 -18.754 -34.452  0.00  0.00    +0.146 C 
BRANCH  11  12
ATOM     12  C   ASN A   5      17.188 -19.606 -35.689  0.00  0.00    +0.227 C 
ATOM     13  O   ASN A   5      17.500 -20.796 -35.695  0.00  0.00    -0.286 OA
ENDBRANCH  11  12
BRANCH  11  14
ATOM     14  CB  ASN A   5      16.569 -19.175 -33.274  0.00  0.00    +0.112 C 
BRANCH  14  15
ATOM     15  CG  ASN A   5      17.130 -18.667 -31.956  0.00  0.00    +0.222 C 
ATOM     16  ND2 ASN A   5      16.267 -18.167 -31.069  0.00  0.00    -0.329 N 
ATOM     17 HD21 ASN A   5      16.613 -17.783 -30.166  0.00  0.00    +0.145 HD
ATOM     18 HD22 ASN A   5      15.249 -18.161 -31.280  0.00  0.00    +0.145 HD
ATOM     19  OD1 ASN A   5      18.337 -18.698 -31.758  0.00  0.00    -0.275 OA
ENDBRANCH  14  15
ENDBRANCH  11  14
ENDBRANCH   8  11
ENDBRANCH   6   7
BRANCH   6  20
ATOM     20  CB  SER A   4      19.201 -14.339 -35.099  0.00  0.00    +0.166 C 
BRANCH  20  21
ATOM     21  OG  SER A   4      19.310 -14.553 -33.700  0.00  0.00    -0.380 OA
ATOM     22  H   SER A   4      19.511 -15.507 -33.528  0.00  0.00    +0.211 HD
ENDBRANCH  20  21
ENDBRANCH   6  20
ENDBRANCH   3   6
ENDBRANCH   1   2
BRANCH   1  25
ATOM     23  C   THR A   2      13.680 -13.168 -33.986  0.00  0.00    +0.243 C 
ATOM     24  O   THR A   2      13.166 -14.194 -33.515  0.00  0.00    -0.273 OA
ATOM     25  N   TRP A   3      14.396 -13.159 -35.108  0.00  0.00    -0.297 N 
ATOM     26  H   TRP A   3      14.959 -12.320 -35.355  0.00  0.00    +0.150 HD
BRANCH  23  27
ATOM     27  CA  THR A   2      13.462 -11.827 -33.291  0.00  0.00    +0.176 C 
BRANCH  27  29
ATOM     28  C   GLN A   1      11.250 -10.819 -32.916  0.00  0.00    +0.238 C 
ATOM     29  N   THR A   2      12.074 -11.866 -32.828  0.00  0.00    -0.295 N 
ATOM     30  H   THR A   2      11.714 -12.748 -32.412  0.00  0.00    +0.150 HD
ATOM     31  O   GLN A   1      11.616  -9.705 -33.260  0.00  0.00    -0.274 OA
BRANCH  28  32
ATOM     32  CA  GLN A   1       9.797 -11.053 -32.527  0.00  0.00    +0.145 C 
BRANCH  32  33
ATOM     33  N   GLN A   1       9.378 -12.450 -32.728  0.00  0.00    -0.238 NA
ATOM     34  H   GLN A   1       9.531 -13.146 -31.971  0.00  0.00    +0.142 HD
ENDBRANCH  32  33
BRANCH  32  35
ATOM     35  CB  GLN A   1       9.580 -10.625 -31.079  0.00  0.00    +0.036 C 
BRANCH  35  36
ATOM     36  CG  GLN A   1      10.477 -11.338 -30.074  0.00  0.00    +0.087 C 
BRANCH  36  37
ATOM     37  CD  GLN A   1      10.129 -10.950 -28.658  0.00  0.00    +0.219 C 
ATOM     38  NE2 GLN A   1      11.094 -10.396 -27.930  0.00  0.00    -0.329 N 
ATOM     39 HE21 GLN A   1      10.895 -10.073 -26.962  0.00  0.00    +0.145 HD
ATOM     40 HE22 GLN A   1      12.048 -10.286 -28.329  0.00  0.00    +0.145 HD
ATOM     41  OE1 GLN A   1       8.983 -11.106 -28.239  0.00  0.00    -0.275 OA
ENDBRANCH  36  37
ENDBRANCH  35  36
ENDBRANCH  32  35
ENDBRANCH  28  32
ENDBRANCH  27  29
BRANCH  27  42
ATOM     42  CB  THR A   2      14.502 -11.624 -32.156  0.00  0.00    +0.137 C 
ATOM     43  CG2 THR A   2      14.525 -10.177 -31.664  0.00  0.00    +0.034 C 
BRANCH  42  44
ATOM     44  OG1 THR A   2      14.223 -12.505 -31.047  0.00  0.00    -0.382 OA
ATOM     45  HG1 THR A   2      14.896 -12.361 -30.335  0.00  0.00    +0.210 HD
ENDBRANCH  42  44
ENDBRANCH  27  42
ENDBRANCH  23  27
ENDBRANCH   1  25
BRANCH   1  46
ATOM     46  CB  TRP A   3      13.939 -13.924 -37.403  0.00  0.00    +0.057 C 
BRANCH  46  47
ATOM     47  CG  TRP A   3      12.590 -13.278 -37.523  0.00  0.00    -0.002 A 
ATOM     48  CD1 TRP A   3      11.631 -13.127 -36.554  0.00  0.00    +0.068 A 
ATOM     49  NE1 TRP A   3      10.521 -12.494 -37.084  0.00  0.00    -0.352 N 
ATOM     50  HE1 TRP A   3       9.661 -12.238 -36.558  0.00  0.00    +0.166 HD
ATOM     51  CE2 TRP A   3      10.741 -12.259 -38.417  0.00  0.00    +0.056 A 
ATOM     52  CZ2 TRP A   3       9.911 -11.672 -39.373  0.00  0.00    +0.017 A 
ATOM     53  CH2 TRP A   3      10.399 -11.551 -40.658  0.00  0.00    +0.001 A 
ATOM     54  CZ3 TRP A   3      11.690 -12.022 -41.000  0.00  0.00    +0.000 A 
ATOM     55  CE3 TRP A   3      12.507 -12.631 -40.042  0.00  0.00    +0.001 A 
ATOM     56  CD2 TRP A   3      12.035 -12.740 -38.725  0.00  0.00    +0.013 A 
ENDBRANCH  46  47
ENDBRANCH   1  46
TORSDOF 21
REMARK  Name = ../refined-set-2016/4ca5/4ca5_pocket.pdb
REMARK  300 active torsions:
REMARK  status: ('A' for Active; 'I' for Inactive)
REMARK    1  A    between atoms: _1  and  _3
REMARK    2  A    between atoms: _3  and  _4
REMARK    3  A    between atoms: _3  and  _6
REMARK    4  A    between atoms: _6  and  _7
REMARK    5  A    between atoms: _12  and  _14
REMARK    6  A    between atoms: _14  and  _15
REMARK    7  A    between atoms: _14  and  _17
REMARK    8  A    between atoms: _17  and  _18
REMARK    9  A    between atoms: _23  and  _25
REMARK   10  A    between atoms: _25  and  _26
REMARK   11  A    between atoms: _25  and  _28
REMARK   12  A    between atoms: _28  and  _29
REMARK   13  A    between atoms: _29  and  _30
REMARK   14  A    between atoms: _33  and  _35
REMARK   15  A    between atoms: _35  and  _36
REMARK   16  A    between atoms: _35  and  _38
REMARK   17  A    between atoms: _38  and  _39
REMARK   18  A    between atoms: _44  and  _45
REMARK   19  A    between atoms: _47  and  _49
REMARK   20  A    between atoms: _49  and  _50
REMARK   21  A    between atoms: _49  and  _52
REMARK   22  A    between atoms: _52  and  _53
REMARK   23  A    between atoms: _53  and  _54
REMARK   24  A    between atoms: _57  and  _59
REMARK   25  A    between atoms: _59  and  _60
REMARK   26  A    between atoms: _59  and  _62
REMARK   27  A    between atoms: _62  and  _63
REMARK   28  A    between atoms: _66  and  _68
REMARK   29  A    between atoms: _68  and  _69
REMARK   30  A    between atoms: _71  and  _73
REMARK   31  A    between atoms: _73  and  _74
REMARK   32  A    between atoms: _73  and  _76
REMARK   33  A    between atoms: _76  and  _77
REMARK   34  A    between atoms: _82  and  _84
REMARK   35  A    between atoms: _84  and  _85
REMARK   36  A    between atoms: _84  and  _87
REMARK   37  A    between atoms: _87  and  _88
REMARK   38  A    between atoms: _88  and  _89
REMARK   39  A    between atoms: _91  and  _93
REMARK   40  A    between atoms: _93  and  _94
REMARK   41  A    between atoms: _93  and  _96
REMARK   42  A    between atoms: _96  and  _97
REMARK   43  A    between atoms: _107  and  _109
REMARK   44  A    between atoms: _109  and  _110
REMARK   45  A    between atoms: _109  and  _112
REMARK   46  A    between atoms: _112  and  _113
REMARK   47  A    between atoms: _113  and  _114
REMARK   48  A    between atoms: _119  and  _121
REMARK   49  A    between atoms: _121  and  _122
REMARK   50  A    between atoms: _121  and  _124
REMARK   51  A    between atoms: _124  and  _125
REMARK   52  A    between atoms: _128  and  _130
REMARK   53  A    between atoms: _130  and  _131
REMARK   54  A    between atoms: _130  and  _133
REMARK   55  A    between atoms: _133  and  _134
REMARK   56  A    between atoms: _144  and  _146
REMARK   57  A    between atoms: _146  and  _147
REMARK   58  A    between atoms: _146  and  _149
REMARK   59  A    between atoms: _149  and  _150
REMARK   60  A    between atoms: _152  and  _154
REMARK   61  A    between atoms: _154  and  _155
REMARK   62  A    between atoms: _154  and  _157
REMARK   63  A    between atoms: _157  and  _158
REMARK   64  A    between atoms: _163  and  _165
REMARK   65  A    between atoms: _165  and  _166
REMARK   66  A    between atoms: _165  and  _168
REMARK   67  A    between atoms: _171  and  _173
REMARK   68  A    between atoms: _173  and  _174
REMARK   69  A    between atoms: _173  and  _176
REMARK   70  A    between atoms: _178  and  _180
REMARK   71  A    between atoms: _180  and  _181
REMARK   72  A    between atoms: _180  and  _183
REMARK   73  A    between atoms: _183  and  _184
REMARK   74  A    between atoms: _189  and  _191
REMARK   75  A    between atoms: _191  and  _192
REMARK   76  A    between atoms: _195  and  _197
REMARK   77  A    between atoms: _197  and  _198
REMARK   78  A    between atoms: _197  and  _200
REMARK   79  A    between atoms: _200  and  _201
REMARK   80  A    between atoms: _203  and  _205
REMARK   81  A    between atoms: _205  and  _206
REMARK   82  A    between atoms: _209  and  _211
REMARK   83  A    between atoms: _211  and  _212
REMARK   84  A    between atoms: _211  and  _214
REMARK   85  A    between atoms: _214  and  _215
REMARK   86  A    between atoms: _225  and  _227
REMARK   87  A    between atoms: _227  and  _228
REMARK   88  A    between atoms: _227  and  _230
REMARK   89  A    between atoms: _230  and  _231
REMARK   90  A    between atoms: _234  and  _236
REMARK   91  A    between atoms: _236  and  _237
REMARK   92  A    between atoms: _236  and  _239
REMARK   93  A    between atoms: _239  and  _240
REMARK   94  A    between atoms: _245  and  _246
REMARK   95  A    between atoms: _248  and  _250
REMARK   96  A    between atoms: _250  and  _251
REMARK   97  A    between atoms: _250  and  _253
REMARK   98  A    between atoms: _253  and  _254
REMARK   99  A    between atoms: _254  and  _255
REMARK  100  A    between atoms: _255  and  _256
REMARK  101  A    between atoms: _265  and  _267
REMARK  102  A    between atoms: _267  and  _268
REMARK  103  A    between atoms: _267  and  _270
REMARK  104  A    between atoms: _270  and  _271
REMARK  105  A    between atoms: _274  and  _276
REMARK  106  A    between atoms: _276  and  _277
REMARK  107  A    between atoms: _276  and  _279
REMARK  108  A    between atoms: _279  and  _280
REMARK  109  A    between atoms: _280  and  _281
REMARK  110  A    between atoms: _281  and  _282
REMARK  111  A    between atoms: _282  and  _283
REMARK  112  A    between atoms: _287  and  _289
REMARK  113  A    between atoms: _289  and  _290
REMARK  114  A    between atoms: _289  and  _292
REMARK  115  A    between atoms: _292  and  _293
REMARK  116  A    between atoms: _293  and  _294
REMARK  117  A    between atoms: _299  and  _301
REMARK  118  A    between atoms: _301  and  _302
REMARK  119  A    between atoms: _301  and  _304
REMARK  120  A    between atoms: _304  and  _305
REMARK  121  A    between atoms: _310  and  _312
REMARK  122  A    between atoms: _312  and  _313
REMARK  123  A    between atoms: _312  and  _315
REMARK  124  A    between atoms: _315  and  _316
REMARK  125  A    between atoms: _319  and  _321
REMARK  126  A    between atoms: _321  and  _322
REMARK  127  A    between atoms: _321  and  _324
REMARK  128  A    between atoms: _324  and  _325
REMARK  129  A    between atoms: _325  and  _326
REMARK  130  A    between atoms: _329  and  _331
REMARK  131  A    between atoms: _331  and  _332
REMARK  132  A    between atoms: _331  and  _334
REMARK  133  A    between atoms: _334  and  _335
REMARK  134  A    between atoms: _338  and  _340
REMARK  135  A    between atoms: _340  and  _341
REMARK  136  A    between atoms: _340  and  _343
REMARK  137  A    between atoms: _346  and  _348
REMARK  138  A    between atoms: _348  and  _349
REMARK  139  A    between atoms: _348  and  _351
REMARK  140  A    between atoms: _354  and  _356
REMARK  141  A    between atoms: _356  and  _357
REMARK  142  A    between atoms: _360  and  _362
REMARK  143  A    between atoms: _362  and  _363
REMARK  144  A    between atoms: _362  and  _365
REMARK  145  A    between atoms: _365  and  _366
REMARK  146  A    between atoms: _371  and  _373
REMARK  147  A    between atoms: _384  and  _387
REMARK  148  A    between atoms: _387  and  _388
REMARK  149  A    between atoms: _388  and  _389
REMARK  150  A    between atoms: _394  and  _397
REMARK  151  A    between atoms: _397  and  _398
REMARK  152  A    between atoms: _398  and  _399
REMARK  153  A    between atoms: _408  and  _409
REMARK  154  A    between atoms: _417  and  _419
REMARK  155  A    between atoms: _419  and  _420
REMARK  156  A    between atoms: _419  and  _422
REMARK  157  A    between atoms: _422  and  _423
REMARK  158  A    between atoms: _426  and  _428
REMARK  159  A    between atoms: _428  and  _429
REMARK  160  A    between atoms: _428  and  _431
REMARK  161  A    between atoms: _431  and  _432
REMARK  162  A    between atoms: _437  and  _438
REMARK  163  A    between atoms: _440  and  _442
REMARK  164  A    between atoms: _442  and  _443
REMARK  165  A    between atoms: _442  and  _445
REMARK  166  A    between atoms: _445  and  _446
REMARK  167  A    between atoms: _452  and  _454
REMARK  168  A    between atoms: _454  and  _455
REMARK  169  A    between atoms: _454  and  _457
REMARK  170  A    between atoms: _457  and  _458
REMARK  171  A    between atoms: _463  and  _464
REMARK  172  A    between atoms: _466  and  _468
REMARK  173  A    between atoms: _468  and  _469
REMARK  174  A    between atoms: _468  and  _471
REMARK  175  A    between atoms: _471  and  _472
REMARK  176  A    between atoms: _472  and  _473
REMARK  177  A    between atoms: _473  and  _474
REMARK  178  A    between atoms: _483  and  _485
REMARK  179  A    between atoms: _485  and  _486
REMARK  180  A    between atoms: _485  and  _488
REMARK  181  A    between atoms: _488  and  _489
REMARK  182  A    between atoms: _489  and  _490
REMARK  183  A    between atoms: _493  and  _495
REMARK  184  A    between atoms: _495  and  _496
REMARK  185  A    between atoms: _498  and  _500
REMARK  186  A    between atoms: _500  and  _501
REMARK  187  A    between atoms: _500  and  _503
REMARK  188  A    between atoms: _503  and  _504
REMARK  189  A    between atoms: _510  and  _511
REMARK  190  A    between atoms: _516  and  _518
REMARK  191  A    between atoms: _518  and  _519
REMARK  192  A    between atoms: _521  and  _523
REMARK  193  A    between atoms: _523  and  _524
REMARK  194  A    between atoms: _523  and  _526
REMARK  195  A    between atoms: _526  and  _527
REMARK  196  A    between atoms: _533  and  _535
REMARK  197  A    between atoms: _535  and  _536
REMARK  198  A    between atoms: _535  and  _538
REMARK  199  A    between atoms: _538  and  _539
REMARK  200  A    between atoms: _544  and  _546
REMARK  201  A    between atoms: _546  and  _547
REMARK  202  A    between atoms: _546  and  _549
REMARK  203  A    between atoms: _549  and  _550
REMARK  204  A    between atoms: _550  and  _551
REMARK  205  A    between atoms: _551  and  _552
REMARK  206  A    between atoms: _552  and  ZN_793
REMARK  207  A    between atoms: _554  and  _556
REMARK  208  A    between atoms: _556  and  _557
REMARK  209  A    between atoms: _560  and  _562
REMARK  210  A    between atoms: _562  and  _563
REMARK  211  A    between atoms: _562  and  _565
REMARK  212  A    between atoms: _565  and  _566
REMARK  213  A    between atoms: _569  and  _571
REMARK  214  A    between atoms: _571  and  _572
REMARK  215  A    between atoms: _575  and  _577
REMARK  216  A    between atoms: _577  and  _578
REMARK  217  A    between atoms: _577  and  _580
REMARK  218  A    between atoms: _580  and  _581
REMARK  219  A    between atoms: _584  and  _586
REMARK  220  A    between atoms: _586  and  _587
REMARK  221  A    between atoms: _586  and  _589
REMARK  222  A    between atoms: _589  and  _590
REMARK  223  A    between atoms: _590  and  _591
REMARK  224  A    between atoms: _591  and  _592
REMARK  225  A    between atoms: _592  and  _593
REMARK  226  A    between atoms: _597  and  _599
REMARK  227  A    between atoms: _599  and  _600
REMARK  228  A    between atoms: _599  and  _602
REMARK  229  A    between atoms: _602  and  _603
REMARK  230  A    between atoms: _609  and  _611
REMARK  231  A    between atoms: _611  and  _612
REMARK  232  A    between atoms: _611  and  _614
REMARK  233  A    between atoms: _614  and  _615
REMARK  234  A    between atoms: _621  and  _623
REMARK  235  A    between atoms: _623  and  _624
REMARK  236  A    between atoms: _623  and  _626
REMARK  237  A    between atoms: _626  and  _627
REMARK  238  A    between atoms: _629  and  _631
REMARK  239  A    between atoms: _631  and  _632
REMARK  240  A    between atoms: _631  and  _634
REMARK  241  A    between atoms: _637  and  _639
REMARK  242  A    between atoms: _639  and  _640
REMARK  243  A    between atoms: _639  and  _642
REMARK  244  A    between atoms: _642  and  _643
REMARK  245  A    between atoms: _643  and  _644
REMARK  246  A    between atoms: _644  and  _645
REMARK  247  A    between atoms: _645  and  _646
REMARK  248  A    between atoms: _650  and  _652
REMARK  249  A    between atoms: _652  and  _653
REMARK  250  A    between atoms: _652  and  _655
REMARK  251  A    between atoms: _655  and  _656
REMARK  252  A    between atoms: _662  and  _664
REMARK  253  A    between atoms: _664  and  _665
REMARK  254  A    between atoms: _664  and  _667
REMARK  255  A    between atoms: _667  and  _668
REMARK  256  A    between atoms: _673  and  _675
REMARK  257  A    between atoms: _675  and  _676
REMARK  258  A    between atoms: _675  and  _678
REMARK  259  A    between atoms: _678  and  _679
REMARK  260  A    between atoms: _681  and  _683
REMARK  261  A    between atoms: _683  and  _684
REMARK  262  A    between atoms: _683  and  _686
REMARK  263  A    between atoms: _686  and  _687
REMARK  264  A    between atoms: _689  and  _691
REMARK  265  A    between atoms: _691  and  _692
REMARK  266  A    between atoms: _691  and  _694
REMARK  267  A    between atoms: _698  and  _699
REMARK  268  A    between atoms: _704  and  _706
REMARK  269  A    between atoms: _706  and  _707
REMARK  270  A    between atoms: _706  and  _709
REMARK  271  A    between atoms: _709  and  _710
REMARK  272  A    between atoms: _715  and  _716
REMARK  273  A    between atoms: _718  and  _720
REMARK  274  A    between atoms: _720  and  _721
REMARK  275  A    between atoms: _720  and  _723
REMARK  276  A    between atoms: _723  and  _724
REMARK  277  A    between atoms: _724  and  _725
REMARK  278  A    between atoms: _725  and  _726
REMARK  279  A    between atoms: _735  and  _737
REMARK  280  A    between atoms: _737  and  _738
REMARK  281  A    between atoms: _737  and  _740
REMARK  282  A    between atoms: _740  and  _741
REMARK  283  A    between atoms: _746  and  _747
REMARK  284  A    between atoms: _749  and  _751
REMARK  285  A    between atoms: _751  and  _752
REMARK  286  A    between atoms: _751  and  _754
REMARK  287  A    between atoms: _754  and  _755
REMARK  288  A    between atoms: _761  and  _763
REMARK  289  A    between atoms: _763  and  _764
REMARK  290  A    between atoms: _763  and  _766
REMARK  291  A    between atoms: _766  and  _767
REMARK  292  A    between atoms: _769  and  _771
REMARK  293  A    between atoms: _771  and  _772
REMARK  294  A    between atoms: _771  and  _774
REMARK  295  A    between atoms: _774  and  _775
REMARK  296  A    between atoms: _781  and  _783
REMARK  297  A    between atoms: _783  and  _784
REMARK  298  A    between atoms: _783  and  _786
REMARK  299  A    between atoms: _786  and  _787
REMARK  300  A    between atoms: _787  and  _788
REMARK                            x       y       z     vdW  Elec       q    Type
REMARK                         _______ _______ _______ _____ _____    ______ ____
ROOT
ATOM      1  CA  SER A   5      15.079  -8.534 -14.934  0.00  0.00    +0.178 C 
ENDROOT
BRANCH   1   3
ATOM      2  C   ALA A   4      14.630 -10.292 -16.541  0.00  0.00    +0.241 C 
ATOM      3  N   SER A   5      15.257  -9.898 -15.435  0.00  0.00    -0.295 N 
ATOM      4  H   SER A   5      15.875 -10.561 -14.925  0.00  0.00    +0.150 HD
ATOM      5  O   ALA A   4      13.852  -9.565 -17.159  0.00  0.00    -0.273 OA
BRANCH   2   6
ATOM      6  CA  ALA A   4      14.957 -11.698 -17.034  0.00  0.00    +0.149 C 
ATOM      7  CB  ALA A   4      16.073 -11.628 -18.072  0.00  0.00    +0.031 C 
BRANCH   6  10
ATOM      8  C   HIS A   3      12.696 -12.658 -16.837  0.00  0.00    +0.241 C 
ATOM      9  O   HIS A   3      12.482 -12.114 -15.753  0.00  0.00    -0.273 OA
ATOM     10  N   ALA A   4      13.799 -12.443 -17.561  0.00  0.00    -0.297 N 
ATOM     11  H   ALA A   4      13.842 -12.815 -18.531  0.00  0.00    +0.150 HD
BRANCH   8  12
ATOM     12  CA  HIS A   3      11.685 -13.660 -17.400  0.00  0.00    +0.155 C 
BRANCH  12  15
ATOM     13  C   CYS A   2      12.496 -15.419 -15.932  0.00  0.00    +0.242 C 
ATOM     14  O   CYS A   2      13.658 -15.048 -16.110  0.00  0.00    -0.273 OA
ATOM     15  N   HIS A   3      11.453 -14.747 -16.431  0.00  0.00    -0.297 N 
ATOM     16  H   HIS A   3      10.485 -14.989 -16.138  0.00  0.00    +0.150 HD
BRANCH  13  17
ATOM     17  CA  CYS A   2      12.231 -16.683 -15.094  0.00  0.00    +0.160 C 
BRANCH  17  20
ATOM     18  C   VAL A   1      10.923 -15.836 -13.256  0.00  0.00    +0.238 C 
ATOM     19  O   VAL A   1      11.879 -15.171 -12.854  0.00  0.00    -0.274 OA
ATOM     20  N   CYS A   2      10.999 -16.624 -14.322  0.00  0.00    -0.297 N 
ATOM     21  H   CYS A   2      10.179 -17.198 -14.605  0.00  0.00    +0.150 HD
BRANCH  18  22
ATOM     22  CA  VAL A   1       9.600 -15.825 -12.509  0.00  0.00    +0.145 C 
BRANCH  22  23
ATOM     23  CB  VAL A   1       9.167 -14.370 -12.233  0.00  0.00    +0.025 C 
ATOM     24  CG2 VAL A   1       7.888 -14.337 -11.404  0.00  0.00    +0.002 C 
ATOM     25  CG1 VAL A   1       9.018 -13.581 -13.533  0.00  0.00    +0.002 C 
ENDBRANCH  22  23
BRANCH  22  26
ATOM     26  N   VAL A   1       9.869 -16.556 -11.292  0.00  0.00    -0.238 NA
ATOM     27  H   VAL A   1      10.160 -16.032 -10.442  0.00  0.00    +0.142 HD
ENDBRANCH  22  26
ENDBRANCH  18  22
ENDBRANCH  17  20
BRANCH  17  28
ATOM     28  CB  CYS A   2      12.289 -17.944 -15.968  0.00  0.00    +0.098 C 
ATOM     29  SG  CYS A   2      13.028 -19.381 -15.145  0.00  0.00    -0.080 S 
ENDBRANCH  17  28
ENDBRANCH  13  17
ENDBRANCH  12  15
BRANCH  12  30
ATOM     30  CB  HIS A   3      10.389 -12.957 -17.803  0.00  0.00    +0.076 C 
BRANCH  30  31
ATOM     31  CG  HIS A   3      10.546 -12.046 -18.973  0.00  0.00    +0.082 A 
ATOM     32  CD2 HIS A   3      10.999 -10.770 -19.057  0.00  0.00    +0.115 A 
ATOM     33  NE2 HIS A   3      10.958 -10.414 -20.385  0.00  0.00    -0.221 NA
ATOM     34  CE1 HIS A   3      10.498 -11.432 -21.089  0.00  0.00    +0.199 A 
ATOM     35  ND1 HIS A   3      10.249 -12.433 -20.262  0.00  0.00    -0.227 NA
ENDBRANCH  30  31
ENDBRANCH  12  30
ENDBRANCH   8  12
ENDBRANCH   6  10
ENDBRANCH   2   6
ENDBRANCH   1   3
BRANCH   1  36
ATOM     36  C   SER A   5      16.248  -8.111 -14.068  0.00  0.00    +0.243 C 
ATOM     37  O   SER A   5      16.981  -8.960 -13.522  0.00  0.00    -0.273 OA
ATOM     38  N   ALA A   6      16.402  -6.793 -13.964  0.00  0.00    -0.297 N 
ATOM     39  H   ALA A   6      15.709  -6.183 -14.442  0.00  0.00    +0.150 HD
BRANCH  38  40
ATOM     40  CA  ALA A   6      17.472  -6.155 -13.228  0.00  0.00    +0.149 C 
ATOM     41  CB  ALA A   6      18.297  -5.299 -14.171  0.00  0.00    +0.031 C 
BRANCH  40  42
ATOM     42  C   ALA A   6      16.837  -5.308 -12.143  0.00  0.00    +0.241 C 
ATOM     43  N   TRP A   7      17.401  -5.396 -10.939  0.00  0.00    -0.297 N 
ATOM     44  H   TRP A   7      18.328  -5.860 -10.856  0.00  0.00    +0.150 HD
ATOM     45  O   ALA A   6      15.843  -4.602 -12.395  0.00  0.00    -0.273 OA
BRANCH  43  46
ATOM     46  CA  TRP A   7      16.770  -4.867  -9.725  0.00  0.00    +0.153 C 
BRANCH  46  47
ATOM     47  C   TRP A   7      17.627  -3.825  -8.989  0.00  0.00    +0.241 C 
ATOM     48  O   TRP A   7      18.785  -4.078  -8.646  0.00  0.00    -0.273 OA
ATOM     49  N   ASP A   8      17.027  -2.663  -8.760  0.00  0.00    -0.298 N 
ATOM     50  H   ASP A   8      16.097  -2.505  -9.197  0.00  0.00    +0.150 HD
BRANCH  49  51
ATOM     51  CA  ASP A   8      17.581  -1.595  -7.940  0.00  0.00    +0.148 C 
BRANCH  51  52
ATOM     52  C   ASP A   8      16.861  -1.666  -6.588  0.00  0.00    +0.227 C 
ATOM     53  O   ASP A   8      15.638  -1.578  -6.539  0.00  0.00    -0.286 OA
ENDBRANCH  51  52
BRANCH  51  54
ATOM     54  CB  ASP A   8      17.292  -0.237  -8.620  0.00  0.00    +0.142 C 
BRANCH  54  55
ATOM     55  CG  ASP A   8      18.067   0.925  -8.003  0.00  0.00    +0.367 C 
ATOM     56  OD2 ASP A   8      18.533   0.806  -6.851  0.00  0.00    -0.246 OA
ATOM     57  OD1 ASP A   8      18.203   1.971  -8.682  0.00  0.00    -0.246 OA
ENDBRANCH  54  55
ENDBRANCH  51  54
ENDBRANCH  49  51
ENDBRANCH  46  47
BRANCH  46  58
ATOM     58  CB  TRP A   7      16.414  -6.027  -8.775  0.00  0.00    +0.057 C 
BRANCH  58  59
ATOM     59  CG  TRP A   7      15.368  -6.971  -9.326  0.00  0.00    -0.002 A 
ATOM     60  CD2 TRP A   7      14.065  -7.213  -8.786  0.00  0.00    +0.013 A 
ATOM     61  CE3 TRP A   7      13.355  -6.695  -7.691  0.00  0.00    +0.001 A 
ATOM     62  CZ3 TRP A   7      12.047  -7.164  -7.455  0.00  0.00    +0.000 A 
ATOM     63  CH2 TRP A   7      11.456  -8.123  -8.308  0.00  0.00    +0.001 A 
ATOM     64  CZ2 TRP A   7      12.135  -8.639  -9.390  0.00  0.00    +0.017 A 
ATOM     65  CE2 TRP A   7      13.433  -8.168  -9.625  0.00  0.00    +0.056 A 
ATOM     66  NE1 TRP A   7      14.327  -8.508 -10.609  0.00  0.00    -0.352 N 
ATOM     67  HE1 TRP A   7      14.159  -9.198 -11.369  0.00  0.00    +0.166 HD
ATOM     68  CD1 TRP A   7      15.485  -7.784 -10.423  0.00  0.00    +0.068 A 
ENDBRANCH  58  59
ENDBRANCH  46  58
ENDBRANCH  43  46
ENDBRANCH  40  42
ENDBRANCH  38  40
ENDBRANCH   1  36
BRANCH   1  69
ATOM     69  CB  SER A   5      13.741  -8.360 -14.183  0.00  0.00    +0.166 C 
BRANCH  69  70
ATOM     70  OG  SER A   5      13.502  -9.418 -13.271  0.00  0.00    -0.380 OA
ATOM     71  H   SER A   5      12.637  -9.268 -12.813  0.00  0.00    +0.211 HD
ENDBRANCH  69  70
ENDBRANCH   1  69
TORSDOF 26
REMARK  Name = ../refined-set-2016/4ca5/4ca5_pocket.pdb
REMARK  300 active torsions:
REMARK  status: ('A' for Active; 'I' for Inactive)
REMARK    1  A    between atoms: _1  and  _3
REMARK    2  A    between atoms: _3  and  _4
REMARK    3  A    between atoms: _3  and  _6
REMARK    4  A    between atoms: _6  and  _7
REMARK    5  A    between atoms: _12  and  _14
REMARK    6  A    between atoms: _14  and  _15
REMARK    7  A    between atoms: _14  and  _17
REMARK    8  A    between atoms: _17  and  _18
REMARK    9  A    between atoms: _23  and  _25
REMARK   10  A    between atoms: _25  and  _26
REMARK   11  A    between atoms: _25  and  _28
REMARK   12  A    between atoms: _28  and  _29
REMARK   13  A    between atoms: _29  and  _30
REMARK   14  A    between atoms: _33  and  _35
REMARK   15  A    between atoms: _35  and  _36
REMARK   16  A    between atoms: _35  and  _38
REMARK   17  A    between atoms: _38  and  _39
REMARK   18  A    between atoms: _44  and  _45
REMARK   19  A    between atoms: _47  and  _49
REMARK   20  A    between atoms: _49  and  _50
REMARK   21  A    between atoms: _49  and  _52
REMARK   22  A    between atoms: _52  and  _53
REMARK   23  A    between atoms: _53  and  _54
REMARK   24  A    between atoms: _57  and  _59
REMARK   25  A    between atoms: _59  and  _60
REMARK   26  A    between atoms: _59  and  _62
REMARK   27  A    between atoms: _62  and  _63
REMARK   28  A    between atoms: _66  and  _68
REMARK   29  A    between atoms: _68  and  _69
REMARK   30  A    between atoms: _71  and  _73
REMARK   31  A    between atoms: _73  and  _74
REMARK   32  A    between atoms: _73  and  _76
REMARK   33  A    between atoms: _76  and  _77
REMARK   34  A    between atoms: _82  and  _84
REMARK   35  A    between atoms: _84  and  _85
REMARK   36  A    between atoms: _84  and  _87
REMARK   37  A    between atoms: _87  and  _88
REMARK   38  A    between atoms: _88  and  _89
REMARK   39  A    between atoms: _91  and  _93
REMARK   40  A    between atoms: _93  and  _94
REMARK   41  A    between atoms: _93  and  _96
REMARK   42  A    between atoms: _96  and  _97
REMARK   43  A    between atoms: _107  and  _109
REMARK   44  A    between atoms: _109  and  _110
REMARK   45  A    between atoms: _109  and  _112
REMARK   46  A    between atoms: _112  and  _113
REMARK   47  A    between atoms: _113  and  _114
REMARK   48  A    between atoms: _119  and  _121
REMARK   49  A    between atoms: _121  and  _122
REMARK   50  A    between atoms: _121  and  _124
REMARK   51  A    between atoms: _124  and  _125
REMARK   52  A    between atoms: _128  and  _130
REMARK   53  A    between atoms: _130  and  _131
REMARK   54  A    between atoms: _130  and  _133
REMARK   55  A    between atoms: _133  and  _134
REMARK   56  A    between atoms: _144  and  _146
REMARK   57  A    between atoms: _146  and  _147
REMARK   58  A    between atoms: _146  and  _149
REMARK   59  A    between atoms: _149  and  _150
REMARK   60  A    between atoms: _152  and  _154
REMARK   61  A    between atoms: _154  and  _155
REMARK   62  A    between atoms: _154  and  _157
REMARK   63  A    between atoms: _157  and  _158
REMARK   64  A    between atoms: _163  and  _165
REMARK   65  A    between atoms: _165  and  _166
REMARK   66  A    between atoms: _165  and  _168
REMARK   67  A    between atoms: _171  and  _173
REMARK   68  A    between atoms: _173  and  _174
REMARK   69  A    between atoms: _173  and  _176
REMARK   70  A    between atoms: _178  and  _180
REMARK   71  A    between atoms: _180  and  _181
REMARK   72  A    between atoms: _180  and  _183
REMARK   73  A    between atoms: _183  and  _184
REMARK   74  A    between atoms: _189  and  _191
REMARK   75  A    between atoms: _191  and  _192
REMARK   76  A    between atoms: _195  and  _197
REMARK   77  A    between atoms: _197  and  _198
REMARK   78  A    between atoms: _197  and  _200
REMARK   79  A    between atoms: _200  and  _201
REMARK   80  A    between atoms: _203  and  _205
REMARK   81  A    between atoms: _205  and  _206
REMARK   82  A    between atoms: _209  and  _211
REMARK   83  A    between atoms: _211  and  _212
REMARK   84  A    between atoms: _211  and  _214
REMARK   85  A    between atoms: _214  and  _215
REMARK   86  A    between atoms: _225  and  _227
REMARK   87  A    between atoms: _227  and  _228
REMARK   88  A    between atoms: _227  and  _230
REMARK   89  A    between atoms: _230  and  _231
REMARK   90  A    between atoms: _234  and  _236
REMARK   91  A    between atoms: _236  and  _237
REMARK   92  A    between atoms: _236  and  _239
REMARK   93  A    between atoms: _239  and  _240
REMARK   94  A    between atoms: _245  and  _246
REMARK   95  A    between atoms: _248  and  _250
REMARK   96  A    between atoms: _250  and  _251
REMARK   97  A    between atoms: _250  and  _253
REMARK   98  A    between atoms: _253  and  _254
REMARK   99  A    between atoms: _254  and  _255
REMARK  100  A    between atoms: _255  and  _256
REMARK  101  A    between atoms: _265  and  _267
REMARK  102  A    between atoms: _267  and  _268
REMARK  103  A    between atoms: _267  and  _270
REMARK  104  A    between atoms: _270  and  _271
REMARK  105  A    between atoms: _274  and  _276
REMARK  106  A    between atoms: _276  and  _277
REMARK  107  A    between atoms: _276  and  _279
REMARK  108  A    between atoms: _279  and  _280
REMARK  109  A    between atoms: _280  and  _281
REMARK  110  A    between atoms: _281  and  _282
REMARK  111  A    between atoms: _282  and  _283
REMARK  112  A    between atoms: _287  and  _289
REMARK  113  A    between atoms: _289  and  _290
REMARK  114  A    between atoms: _289  and  _292
REMARK  115  A    between atoms: _292  and  _293
REMARK  116  A    between atoms: _293  and  _294
REMARK  117  A    between atoms: _299  and  _301
REMARK  118  A    between atoms: _301  and  _302
REMARK  119  A    between atoms: _301  and  _304
REMARK  120  A    between atoms: _304  and  _305
REMARK  121  A    between atoms: _310  and  _312
REMARK  122  A    between atoms: _312  and  _313
REMARK  123  A    between atoms: _312  and  _315
REMARK  124  A    between atoms: _315  and  _316
REMARK  125  A    between atoms: _319  and  _321
REMARK  126  A    between atoms: _321  and  _322
REMARK  127  A    between atoms: _321  and  _324
REMARK  128  A    between atoms: _324  and  _325
REMARK  129  A    between atoms: _325  and  _326
REMARK  130  A    between atoms: _329  and  _331
REMARK  131  A    between atoms: _331  and  _332
REMARK  132  A    between atoms: _331  and  _334
REMARK  133  A    between atoms: _334  and  _335
REMARK  134  A    between atoms: _338  and  _340
REMARK  135  A    between atoms: _340  and  _341
REMARK  136  A    between atoms: _340  and  _343
REMARK  137  A    between atoms: _346  and  _348
REMARK  138  A    between atoms: _348  and  _349
REMARK  139  A    between atoms: _348  and  _351
REMARK  140  A    between atoms: _354  and  _356
REMARK  141  A    between atoms: _356  and  _357
REMARK  142  A    between atoms: _360  and  _362
REMARK  143  A    between atoms: _362  and  _363
REMARK  144  A    between atoms: _362  and  _365
REMARK  145  A    between atoms: _365  and  _366
REMARK  146  A    between atoms: _371  and  _373
REMARK  147  A    between atoms: _384  and  _387
REMARK  148  A    between atoms: _387  and  _388
REMARK  149  A    between atoms: _388  and  _389
REMARK  150  A    between atoms: _394  and  _397
REMARK  151  A    between atoms: _397  and  _398
REMARK  152  A    between atoms: _398  and  _399
REMARK  153  A    between atoms: _408  and  _409
REMARK  154  A    between atoms: _417  and  _419
REMARK  155  A    between atoms: _419  and  _420
REMARK  156  A    between atoms: _419  and  _422
REMARK  157  A    between atoms: _422  and  _423
REMARK  158  A    between atoms: _426  and  _428
REMARK  159  A    between atoms: _428  and  _429
REMARK  160  A    between atoms: _428  and  _431
REMARK  161  A    between atoms: _431  and  _432
REMARK  162  A    between atoms: _437  and  _438
REMARK  163  A    between atoms: _440  and  _442
REMARK  164  A    between atoms: _442  and  _443
REMARK  165  A    between atoms: _442  and  _445
REMARK  166  A    between atoms: _445  and  _446
REMARK  167  A    between atoms: _452  and  _454
REMARK  168  A    between atoms: _454  and  _455
REMARK  169  A    between atoms: _454  and  _457
REMARK  170  A    between atoms: _457  and  _458
REMARK  171  A    between atoms: _463  and  _464
REMARK  172  A    between atoms: _466  and  _468
REMARK  173  A    between atoms: _468  and  _469
REMARK  174  A    between atoms: _468  and  _471
REMARK  175  A    between atoms: _471  and  _472
REMARK  176  A    between atoms: _472  and  _473
REMARK  177  A    between atoms: _473  and  _474
REMARK  178  A    between atoms: _483  and  _485
REMARK  179  A    between atoms: _485  and  _486
REMARK  180  A    between atoms: _485  and  _488
REMARK  181  A    between atoms: _488  and  _489
REMARK  182  A    between atoms: _489  and  _490
REMARK  183  A    between atoms: _493  and  _495
REMARK  184  A    between atoms: _495  and  _496
REMARK  185  A    between atoms: _498  and  _500
REMARK  186  A    between atoms: _500  and  _501
REMARK  187  A    between atoms: _500  and  _503
REMARK  188  A    between atoms: _503  and  _504
REMARK  189  A    between atoms: _510  and  _511
REMARK  190  A    between atoms: _516  and  _518
REMARK  191  A    between atoms: _518  and  _519
REMARK  192  A    between atoms: _521  and  _523
REMARK  193  A    between atoms: _523  and  _524
REMARK  194  A    between atoms: _523  and  _526
REMARK  195  A    between atoms: _526  and  _527
REMARK  196  A    between atoms: _533  and  _535
REMARK  197  A    between atoms: _535  and  _536
REMARK  198  A    between atoms: _535  and  _538
REMARK  199  A    between atoms: _538  and  _539
REMARK  200  A    between atoms: _544  and  _546
REMARK  201  A    between atoms: _546  and  _547
REMARK  202  A    between atoms: _546  and  _549
REMARK  203  A    between atoms: _549  and  _550
REMARK  204  A    between atoms: _550  and  _551
REMARK  205  A    between atoms: _551  and  _552
REMARK  206  A    between atoms: _552  and  ZN_793
REMARK  207  A    between atoms: _554  and  _556
REMARK  208  A    between atoms: _556  and  _557
REMARK  209  A    between atoms: _560  and  _562
REMARK  210  A    between atoms: _562  and  _563
REMARK  211  A    between atoms: _562  and  _565
REMARK  212  A    between atoms: _565  and  _566
REMARK  213  A    between atoms: _569  and  _571
REMARK  214  A    between atoms: _571  and  _572
REMARK  215  A    between atoms: _575  and  _577
REMARK  216  A    between atoms: _577  and  _578
REMARK  217  A    between atoms: _577  and  _580
REMARK  218  A    between atoms: _580  and  _581
REMARK  219  A    between atoms: _584  and  _586
REMARK  220  A    between atoms: _586  and  _587
REMARK  221  A    between atoms: _586  and  _589
REMARK  222  A    between atoms: _589  and  _590
REMARK  223  A    between atoms: _590  and  _591
REMARK  224  A    between atoms: _591  and  _592
REMARK  225  A    between atoms: _592  and  _593
REMARK  226  A    between atoms: _597  and  _599
REMARK  227  A    between atoms: _599  and  _600
REMARK  228  A    between atoms: _599  and  _602
REMARK  229  A    between atoms: _602  and  _603
REMARK  230  A    between atoms: _609  and  _611
REMARK  231  A    between atoms: _611  and  _612
REMARK  232  A    between atoms: _611  and  _614
REMARK  233  A    between atoms: _614  and  _615
REMARK  234  A    between atoms: _621  and  _623
REMARK  235  A    between atoms: _623  and  _624
REMARK  236  A    between atoms: _623  and  _626
REMARK  237  A    between atoms: _626  and  _627
REMARK  238  A    between atoms: _629  and  _631
REMARK  239  A    between atoms: _631  and  _632
REMARK  240  A    between atoms: _631  and  _634
REMARK  241  A    between atoms: _637  and  _639
REMARK  242  A    between atoms: _639  and  _640
REMARK  243  A    between atoms: _639  and  _642
REMARK  244  A    between atoms: _642  and  _643
REMARK  245  A    between atoms: _643  and  _644
REMARK  246  A    between atoms: _644  and  _645
REMARK  247  A    between atoms: _645  and  _646
REMARK  248  A    between atoms: _650  and  _652
REMARK  249  A    between atoms: _652  and  _653
REMARK  250  A    between atoms: _652  and  _655
REMARK  251  A    between atoms: _655  and  _656
REMARK  252  A    between atoms: _662  and  _664
REMARK  253  A    between atoms: _664  and  _665
REMARK  254  A    between atoms: _664  and  _667
REMARK  255  A    between atoms: _667  and  _668
REMARK  256  A    between atoms: _673  and  _675
REMARK  257  A    between atoms: _675  and  _676
REMARK  258  A    between atoms: _675  and  _678
REMARK  259  A    between atoms: _678  and  _679
REMARK  260  A    between atoms: _681  and  _683
REMARK  261  A    between atoms: _683  and  _684
REMARK  262  A    between atoms: _683  and  _686
REMARK  263  A    between atoms: _686  and  _687
REMARK  264  A    between atoms: _689  and  _691
REMARK  265  A    between atoms: _691  and  _692
REMARK  266  A    between atoms: _691  and  _694
REMARK  267  A    between atoms: _698  and  _699
REMARK  268  A    between atoms: _704  and  _706
REMARK  269  A    between atoms: _706  and  _707
REMARK  270  A    between atoms: _706  and  _709
REMARK  271  A    between atoms: _709  and  _710
REMARK  272  A    between atoms: _715  and  _716
REMARK  273  A    between atoms: _718  and  _720
REMARK  274  A    between atoms: _720  and  _721
REMARK  275  A    between atoms: _720  and  _723
REMARK  276  A    between atoms: _723  and  _724
REMARK  277  A    between atoms: _724  and  _725
REMARK  278  A    between atoms: _725  and  _726
REMARK  279  A    between atoms: _735  and  _737
REMARK  280  A    between atoms: _737  and  _738
REMARK  281  A    between atoms: _737  and  _740
REMARK  282  A    between atoms: _740  and  _741
REMARK  283  A    between atoms: _746  and  _747
REMARK  284  A    between atoms: _749  and  _751
REMARK  285  A    between atoms: _751  and  _752
REMARK  286  A    between atoms: _751  and  _754
REMARK  287  A    between atoms: _754  and  _755
REMARK  288  A    between atoms: _761  and  _763
REMARK  289  A    between atoms: _763  and  _764
REMARK  290  A    between atoms: _763  and  _766
REMARK  291  A    between atoms: _766  and  _767
REMARK  292  A    between atoms: _769  and  _771
REMARK  293  A    between atoms: _771  and  _772
REMARK  294  A    between atoms: _771  and  _774
REMARK  295  A    between atoms: _774  and  _775
REMARK  296  A    between atoms: _781  and  _783
REMARK  297  A    between atoms: _783  and  _784
REMARK  298  A    between atoms: _783  and  _786
REMARK  299  A    between atoms: _786  and  _787
REMARK  300  A    between atoms: _787  and  _788
REMARK                            x       y       z     vdW  Elec       q    Type
REMARK                         _______ _______ _______ _____ _____    ______ ____
ROOT
ATOM      1  CG  TYR A   1      15.171   2.410  -5.002  0.00  0.00    -0.020 A 
ATOM      2  CD2 TYR A   1      14.418   1.325  -5.464  0.00  0.00    -0.001 A 
ATOM      3  CE2 TYR A   1      13.908   1.309  -6.753  0.00  0.00    +0.036 A 
ATOM      4  CZ  TYR A   1      14.165   2.382  -7.600  0.00  0.00    +0.134 A 
ATOM      5  CE1 TYR A   1      14.927   3.458  -7.172  0.00  0.00    +0.036 A 
ATOM      6  CD1 TYR A   1      15.431   3.464  -5.882  0.00  0.00    -0.001 A 
ENDROOT
BRANCH   4   7
ATOM      7  OH  TYR A   1      13.672   2.391  -8.886  0.00  0.00    -0.506 OA
ATOM      8  HH  TYR A   1      13.951   3.226  -9.339  0.00  0.00    +0.292 HD
ENDBRANCH   4   7
BRANCH   1   9
ATOM      9  CB  TYR A   1      15.777   2.404  -3.625  0.00  0.00    +0.051 C 
BRANCH   9  10
ATOM     10  CA  TYR A   1      17.245   1.946  -3.733  0.00  0.00    +0.137 C 
BRANCH  10  11
ATOM     11  N   TYR A   1      17.324   0.552  -4.206  0.00  0.00    -0.239 NA
ATOM     12  H   TYR A   1      17.615   0.384  -5.190  0.00  0.00    +0.142 HD
ENDBRANCH  10  11
BRANCH  10  13
ATOM     13  C   TYR A   1      18.071   2.210  -2.483  0.00  0.00    +0.224 C 
ATOM     14  O   TYR A   1      17.729   3.061  -1.653  0.00  0.00    -0.287 OA
ENDBRANCH  10  13
ENDBRANCH   9  10
ENDBRANCH   1   9
TORSDOF 5
REMARK  Name = ../refined-set-2016/4ca5/4ca5_pocket.pdb
REMARK  300 active torsions:
REMARK  status: ('A' for Active; 'I' for Inactive)
REMARK    1  A    between atoms: _1  and  _3
REMARK    2  A    between atoms: _3  and  _4
REMARK    3  A    between atoms: _3  and  _6
REMARK    4  A    between atoms: _6  and  _7
REMARK    5  A    between atoms: _12  and  _14
REMARK    6  A    between atoms: _14  and  _15
REMARK    7  A    between atoms: _14  and  _17
REMARK    8  A    between atoms: _17  and  _18
REMARK    9  A    between atoms: _23  and  _25
REMARK   10  A    between atoms: _25  and  _26
REMARK   11  A    between atoms: _25  and  _28
REMARK   12  A    between atoms: _28  and  _29
REMARK   13  A    between atoms: _29  and  _30
REMARK   14  A    between atoms: _33  and  _35
REMARK   15  A    between atoms: _35  and  _36
REMARK   16  A    between atoms: _35  and  _38
REMARK   17  A    between atoms: _38  and  _39
REMARK   18  A    between atoms: _44  and  _45
REMARK   19  A    between atoms: _47  and  _49
REMARK   20  A    between atoms: _49  and  _50
REMARK   21  A    between atoms: _49  and  _52
REMARK   22  A    between atoms: _52  and  _53
REMARK   23  A    between atoms: _53  and  _54
REMARK   24  A    between atoms: _57  and  _59
REMARK   25  A    between atoms: _59  and  _60
REMARK   26  A    between atoms: _59  and  _62
REMARK   27  A    between atoms: _62  and  _63
REMARK   28  A    between atoms: _66  and  _68
REMARK   29  A    between atoms: _68  and  _69
REMARK   30  A    between atoms: _71  and  _73
REMARK   31  A    between atoms: _73  and  _74
REMARK   32  A    between atoms: _73  and  _76
REMARK   33  A    between atoms: _76  and  _77
REMARK   34  A    between atoms: _82  and  _84
REMARK   35  A    between atoms: _84  and  _85
REMARK   36  A    between atoms: _84  and  _87
REMARK   37  A    between atoms: _87  and  _88
REMARK   38  A    between atoms: _88  and  _89
REMARK   39  A    between atoms: _91  and  _93
REMARK   40  A    between atoms: _93  and  _94
REMARK   41  A    between atoms: _93  and  _96
REMARK   42  A    between atoms: _96  and  _97
REMARK   43  A    between atoms: _107  and  _109
REMARK   44  A    between atoms: _109  and  _110
REMARK   45  A    between atoms: _109  and  _112
REMARK   46  A    between atoms: _112  and  _113
REMARK   47  A    between atoms: _113  and  _114
REMARK   48  A    between atoms: _119  and  _121
REMARK   49  A    between atoms: _121  and  _122
REMARK   50  A    between atoms: _121  and  _124
REMARK   51  A    between atoms: _124  and  _125
REMARK   52  A    between atoms: _128  and  _130
REMARK   53  A    between atoms: _130  and  _131
REMARK   54  A    between atoms: _130  and  _133
REMARK   55  A    between atoms: _133  and  _134
REMARK   56  A    between atoms: _144  and  _146
REMARK   57  A    between atoms: _146  and  _147
REMARK   58  A    between atoms: _146  and  _149
REMARK   59  A    between atoms: _149  and  _150
REMARK   60  A    between atoms: _152  and  _154
REMARK   61  A    between atoms: _154  and  _155
REMARK   62  A    between atoms: _154  and  _157
REMARK   63  A    between atoms: _157  and  _158
REMARK   64  A    between atoms: _163  and  _165
REMARK   65  A    between atoms: _165  and  _166
REMARK   66  A    between atoms: _165  and  _168
REMARK   67  A    between atoms: _171  and  _173
REMARK   68  A    between atoms: _173  and  _174
REMARK   69  A    between atoms: _173  and  _176
REMARK   70  A    between atoms: _178  and  _180
REMARK   71  A    between atoms: _180  and  _181
REMARK   72  A    between atoms: _180  and  _183
REMARK   73  A    between atoms: _183  and  _184
REMARK   74  A    between atoms: _189  and  _191
REMARK   75  A    between atoms: _191  and  _192
REMARK   76  A    between atoms: _195  and  _197
REMARK   77  A    between atoms: _197  and  _198
REMARK   78  A    between atoms: _197  and  _200
REMARK   79  A    between atoms: _200  and  _201
REMARK   80  A    between atoms: _203  and  _205
REMARK   81  A    between atoms: _205  and  _206
REMARK   82  A    between atoms: _209  and  _211
REMARK   83  A    between atoms: _211  and  _212
REMARK   84  A    between atoms: _211  and  _214
REMARK   85  A    between atoms: _214  and  _215
REMARK   86  A    between atoms: _225  and  _227
REMARK   87  A    between atoms: _227  and  _228
REMARK   88  A    between atoms: _227  and  _230
REMARK   89  A    between atoms: _230  and  _231
REMARK   90  A    between atoms: _234  and  _236
REMARK   91  A    between atoms: _236  and  _237
REMARK   92  A    between atoms: _236  and  _239
REMARK   93  A    between atoms: _239  and  _240
REMARK   94  A    between atoms: _245  and  _246
REMARK   95  A    between atoms: _248  and  _250
REMARK   96  A    between atoms: _250  and  _251
REMARK   97  A    between atoms: _250  and  _253
REMARK   98  A    between atoms: _253  and  _254
REMARK   99  A    between atoms: _254  and  _255
REMARK  100  A    between atoms: _255  and  _256
REMARK  101  A    between atoms: _265  and  _267
REMARK  102  A    between atoms: _267  and  _268
REMARK  103  A    between atoms: _267  and  _270
REMARK  104  A    between atoms: _270  and  _271
REMARK  105  A    between atoms: _274  and  _276
REMARK  106  A    between atoms: _276  and  _277
REMARK  107  A    between atoms: _276  and  _279
REMARK  108  A    between atoms: _279  and  _280
REMARK  109  A    between atoms: _280  and  _281
REMARK  110  A    between atoms: _281  and  _282
REMARK  111  A    between atoms: _282  and  _283
REMARK  112  A    between atoms: _287  and  _289
REMARK  113  A    between atoms: _289  and  _290
REMARK  114  A    between atoms: _289  and  _292
REMARK  115  A    between atoms: _292  and  _293
REMARK  116  A    between atoms: _293  and  _294
REMARK  117  A    between atoms: _299  and  _301
REMARK  118  A    between atoms: _301  and  _302
REMARK  119  A    between atoms: _301  and  _304
REMARK  120  A    between atoms: _304  and  _305
REMARK  121  A    between atoms: _310  and  _312
REMARK  122  A    between atoms: _312  and  _313
REMARK  123  A    between atoms: _312  and  _315
REMARK  124  A    between atoms: _315  and  _316
REMARK  125  A    between atoms: _319  and  _321
REMARK  126  A    between atoms: _321  and  _322
REMARK  127  A    between atoms: _321  and  _324
REMARK  128  A    between atoms: _324  and  _325
REMARK  129  A    between atoms: _325  and  _326
REMARK  130  A    between atoms: _329  and  _331
REMARK  131  A    between atoms: _331  and  _332
REMARK  132  A    between atoms: _331  and  _334
REMARK  133  A    between atoms: _334  and  _335
REMARK  134  A    between atoms: _338  and  _340
REMARK  135  A    between atoms: _340  and  _341
REMARK  136  A    between atoms: _340  and  _343
REMARK  137  A    between atoms: _346  and  _348
REMARK  138  A    between atoms: _348  and  _349
REMARK  139  A    between atoms: _348  and  _351
REMARK  140  A    between atoms: _354  and  _356
REMARK  141  A    between atoms: _356  and  _357
REMARK  142  A    between atoms: _360  and  _362
REMARK  143  A    between atoms: _362  and  _363
REMARK  144  A    between atoms: _362  and  _365
REMARK  145  A    between atoms: _365  and  _366
REMARK  146  A    between atoms: _371  and  _373
REMARK  147  A    between atoms: _384  and  _387
REMARK  148  A    between atoms: _387  and  _388
REMARK  149  A    between atoms: _388  and  _389
REMARK  150  A    between atoms: _394  and  _397
REMARK  151  A    between atoms: _397  and  _398
REMARK  152  A    between atoms: _398  and  _399
REMARK  153  A    between atoms: _408  and  _409
REMARK  154  A    between atoms: _417  and  _419
REMARK  155  A    between atoms: _419  and  _420
REMARK  156  A    between atoms: _419  and  _422
REMARK  157  A    between atoms: _422  and  _423
REMARK  158  A    between atoms: _426  and  _428
REMARK  159  A    between atoms: _428  and  _429
REMARK  160  A    between atoms: _428  and  _431
REMARK  161  A    between atoms: _431  and  _432
REMARK  162  A    between atoms: _437  and  _438
REMARK  163  A    between atoms: _440  and  _442
REMARK  164  A    between atoms: _442  and  _443
REMARK  165  A    between atoms: _442  and  _445
REMARK  166  A    between atoms: _445  and  _446
REMARK  167  A    between atoms: _452  and  _454
REMARK  168  A    between atoms: _454  and  _455
REMARK  169  A    between atoms: _454  and  _457
REMARK  170  A    between atoms: _457  and  _458
REMARK  171  A    between atoms: _463  and  _464
REMARK  172  A    between atoms: _466  and  _468
REMARK  173  A    between atoms: _468  and  _469
REMARK  174  A    between atoms: _468  and  _471
REMARK  175  A    between atoms: _471  and  _472
REMARK  176  A    between atoms: _472  and  _473
REMARK  177  A    between atoms: _473  and  _474
REMARK  178  A    between atoms: _483  and  _485
REMARK  179  A    between atoms: _485  and  _486
REMARK  180  A    between atoms: _485  and  _488
REMARK  181  A    between atoms: _488  and  _489
REMARK  182  A    between atoms: _489  and  _490
REMARK  183  A    between atoms: _493  and  _495
REMARK  184  A    between atoms: _495  and  _496
REMARK  185  A    between atoms: _498  and  _500
REMARK  186  A    between atoms: _500  and  _501
REMARK  187  A    between atoms: _500  and  _503
REMARK  188  A    between atoms: _503  and  _504
REMARK  189  A    between atoms: _510  and  _511
REMARK  190  A    between atoms: _516  and  _518
REMARK  191  A    between atoms: _518  and  _519
REMARK  192  A    between atoms: _521  and  _523
REMARK  193  A    between atoms: _523  and  _524
REMARK  194  A    between atoms: _523  and  _526
REMARK  195  A    between atoms: _526  and  _527
REMARK  196  A    between atoms: _533  and  _535
REMARK  197  A    between atoms: _535  and  _536
REMARK  198  A    between atoms: _535  and  _538
REMARK  199  A    between atoms: _538  and  _539
REMARK  200  A    between atoms: _544  and  _546
REMARK  201  A    between atoms: _546  and  _547
REMARK  202  A    between atoms: _546  and  _549
REMARK  203  A    between atoms: _549  and  _550
REMARK  204  A    between atoms: _550  and  _551
REMARK  205  A    between atoms: _551  and  _552
REMARK  206  A    between atoms: _552  and  ZN_793
REMARK  207  A    between atoms: _554  and  _556
REMARK  208  A    between atoms: _556  and  _557
REMARK  209  A    between atoms: _560  and  _562
REMARK  210  A    between atoms: _562  and  _563
REMARK  211  A    between atoms: _562  and  _565
REMARK  212  A    between atoms: _565  and  _566
REMARK  213  A    between atoms: _569  and  _571
REMARK  214  A    between atoms: _571  and  _572
REMARK  215  A    between atoms: _575  and  _577
REMARK  216  A    between atoms: _577  and  _578
REMARK  217  A    between atoms: _577  and  _580
REMARK  218  A    between atoms: _580  and  _581
REMARK  219  A    between atoms: _584  and  _586
REMARK  220  A    between atoms: _586  and  _587
REMARK  221  A    between atoms: _586  and  _589
REMARK  222  A    between atoms: _589  and  _590
REMARK  223  A    between atoms: _590  and  _591
REMARK  224  A    between atoms: _591  and  _592
REMARK  225  A    between atoms: _592  and  _593
REMARK  226  A    between atoms: _597  and  _599
REMARK  227  A    between atoms: _599  and  _600
REMARK  228  A    between atoms: _599  and  _602
REMARK  229  A    between atoms: _602  and  _603
REMARK  230  A    between atoms: _609  and  _611
REMARK  231  A    between atoms: _611  and  _612
REMARK  232  A    between atoms: _611  and  _614
REMARK  233  A    between atoms: _614  and  _615
REMARK  234  A    between atoms: _621  and  _623
REMARK  235  A    between atoms: _623  and  _624
REMARK  236  A    between atoms: _623  and  _626
REMARK  237  A    between atoms: _626  and  _627
REMARK  238  A    between atoms: _629  and  _631
REMARK  239  A    between atoms: _631  and  _632
REMARK  240  A    between atoms: _631  and  _634
REMARK  241  A    between atoms: _637  and  _639
REMARK  242  A    between atoms: _639  and  _640
REMARK  243  A    between atoms: _639  and  _642
REMARK  244  A    between atoms: _642  and  _643
REMARK  245  A    between atoms: _643  and  _644
REMARK  246  A    between atoms: _644  and  _645
REMARK  247  A    between atoms: _645  and  _646
REMARK  248  A    between atoms: _650  and  _652
REMARK  249  A    between atoms: _652  and  _653
REMARK  250  A    between atoms: _652  and  _655
REMARK  251  A    between atoms: _655  and  _656
REMARK  252  A    between atoms: _662  and  _664
REMARK  253  A    between atoms: _664  and  _665
REMARK  254  A    between atoms: _664  and  _667
REMARK  255  A    between atoms: _667  and  _668
REMARK  256  A    between atoms: _673  and  _675
REMARK  257  A    between atoms: _675  and  _676
REMARK  258  A    between atoms: _675  and  _678
REMARK  259  A    between atoms: _678  and  _679
REMARK  260  A    between atoms: _681  and  _683
REMARK  261  A    between atoms: _683  and  _684
REMARK  262  A    between atoms: _683  and  _686
REMARK  263  A    between atoms: _686  and  _687
REMARK  264  A    between atoms: _689  and  _691
REMARK  265  A    between atoms: _691  and  _692
REMARK  266  A    between atoms: _691  and  _694
REMARK  267  A    between atoms: _698  and  _699
REMARK  268  A    between atoms: _704  and  _706
REMARK  269  A    between atoms: _706  and  _707
REMARK  270  A    between atoms: _706  and  _709
REMARK  271  A    between atoms: _709  and  _710
REMARK  272  A    between atoms: _715  and  _716
REMARK  273  A    between atoms: _718  and  _720
REMARK  274  A    between atoms: _720  and  _721
REMARK  275  A    between atoms: _720  and  _723
REMARK  276  A    between atoms: _723  and  _724
REMARK  277  A    between atoms: _724  and  _725
REMARK  278  A    between atoms: _725  and  _726
REMARK  279  A    between atoms: _735  and  _737
REMARK  280  A    between atoms: _737  and  _738
REMARK  281  A    between atoms: _737  and  _740
REMARK  282  A    between atoms: _740  and  _741
REMARK  283  A    between atoms: _746  and  _747
REMARK  284  A    between atoms: _749  and  _751
REMARK  285  A    between atoms: _751  and  _752
REMARK  286  A    between atoms: _751  and  _754
REMARK  287  A    between atoms: _754  and  _755
REMARK  288  A    between atoms: _761  and  _763
REMARK  289  A    between atoms: _763  and  _764
REMARK  290  A    between atoms: _763  and  _766
REMARK  291  A    between atoms: _766  and  _767
REMARK  292  A    between atoms: _769  and  _771
REMARK  293  A    between atoms: _771  and  _772
REMARK  294  A    between atoms: _771  and  _774
REMARK  295  A    between atoms: _774  and  _775
REMARK  296  A    between atoms: _781  and  _783
REMARK  297  A    between atoms: _783  and  _784
REMARK  298  A    between atoms: _783  and  _786
REMARK  299  A    between atoms: _786  and  _787
REMARK  300  A    between atoms: _787  and  _788
REMARK                            x       y       z     vdW  Elec       q    Type
REMARK                         _______ _______ _______ _____ _____    ______ ____
ROOT
ATOM      1  C   ILE A   2      19.256 -10.983 -11.407  0.00  0.00    +0.241 C 
ATOM      2  O   ILE A   2      19.788 -11.763 -10.584  0.00  0.00    -0.273 OA
ATOM      3  N   LYS A   3      18.083 -11.212 -11.993  0.00  0.00    -0.297 N 
ATOM      4  H   LYS A   3      17.683 -10.458 -12.587  0.00  0.00    +0.150 HD
ENDROOT
BRANCH   3   5
ATOM      5  CA  LYS A   3      17.316 -12.455 -11.859  0.00  0.00    +0.149 C 
BRANCH   5   6
ATOM      6  C   LYS A   3      17.012 -12.979 -13.264  0.00  0.00    +0.241 C 
ATOM      7  N   GLN A   4      17.753 -14.012 -13.664  0.00  0.00    -0.298 N 
ATOM      8  H   GLN A   4      18.397 -14.459 -12.980  0.00  0.00    +0.150 HD
ATOM      9  O   LYS A   3      16.122 -12.462 -13.971  0.00  0.00    -0.273 OA
BRANCH   7  10
ATOM     10  CA  GLN A   4      17.698 -14.540 -15.019  0.00  0.00    +0.137 C 
BRANCH  10  11
ATOM     11  C   GLN A   4      17.921 -16.029 -14.961  0.00  0.00    +0.227 C 
ATOM     12  O   GLN A   4      18.832 -16.502 -14.270  0.00  0.00    -0.286 OA
ENDBRANCH  10  11
BRANCH  10  13
ATOM     13  CB  GLN A   4      18.781 -13.895 -15.892  0.00  0.00    +0.037 C 
BRANCH  13  14
ATOM     14  CG  GLN A   4      18.748 -14.298 -17.360  0.00  0.00    +0.087 C 
BRANCH  14  15
ATOM     15  CD  GLN A   4      19.814 -13.609 -18.197  0.00  0.00    +0.219 C 
ATOM     16  OE1 GLN A   4      20.230 -12.498 -17.893  0.00  0.00    -0.275 OA
ATOM     17  NE2 GLN A   4      20.254 -14.270 -19.273  0.00  0.00    -0.329 N 
ATOM     18 HE21 GLN A   4      19.874 -15.212 -19.496  0.00  0.00    +0.145 HD
ATOM     19 HE22 GLN A   4      20.976 -13.842 -19.887  0.00  0.00    +0.145 HD
ENDBRANCH  14  15
ENDBRANCH  13  14
ENDBRANCH  10  13
ENDBRANCH   7  10
ENDBRANCH   5   6
BRANCH   5  20
ATOM     20  CB  LYS A   3      16.018 -12.222 -11.065  0.00  0.00    +0.029 C 
BRANCH  20  21
ATOM     21  CG  LYS A   3      15.114 -13.458 -10.988  0.00  0.00    +0.000 C 
BRANCH  21  22
ATOM     22  CD  LYS A   3      13.651 -13.119 -10.695  0.00  0.00    -0.024 C 
BRANCH  22  23
ATOM     23  CE  LYS A   3      12.989 -12.324 -11.816  0.00  0.00    -0.086 C 
BRANCH  23  24
ATOM     24  NZ  LYS A   3      13.289 -12.884 -13.168  0.00  0.00    +0.380 N 
ATOM     25  HZ1 LYS A   3      12.943 -13.863 -13.221  0.00  0.00    -0.089 HD
ATOM     26  HZ2 LYS A   3      14.317 -12.869 -13.328  0.00  0.00    -0.089 HD
ATOM     27  HZ3 LYS A   3      12.816 -12.308 -13.893  0.00  0.00    -0.089 HD
ENDBRANCH  23  24
ENDBRANCH  22  23
ENDBRANCH  21  22
ENDBRANCH  20  21
ENDBRANCH   5  20
ENDBRANCH   3   5
BRANCH   1  28
ATOM     28  CA  ILE A   2      19.919  -9.647 -11.769  0.00  0.00    +0.148 C 
BRANCH  28  31
ATOM     29  C   ARG A   1      20.125  -8.017  -9.963  0.00  0.00    +0.238 C 
ATOM     30  O   ARG A   1      19.223  -7.324 -10.419  0.00  0.00    -0.274 OA
ATOM     31  N   ILE A   2      20.593  -9.090 -10.588  0.00  0.00    -0.297 N 
ATOM     32  H   ILE A   2      21.457  -9.547 -10.234  0.00  0.00    +0.150 HD
BRANCH  29  33
ATOM     33  CA  ARG A   1      20.732  -7.724  -8.592  0.00  0.00    +0.145 C 
BRANCH  33  34
ATOM     34  N   ARG A   1      20.809  -6.289  -8.286  0.00  0.00    -0.238 NA
ATOM     35  H   ARG A   1      20.025  -5.663  -8.560  0.00  0.00    +0.142 HD
ENDBRANCH  33  34
BRANCH  33  36
ATOM     36  CB  ARG A   1      19.906  -8.465  -7.529  0.00  0.00    +0.030 C 
BRANCH  36  37
ATOM     37  CG  ARG A   1      20.331  -8.195  -6.088  0.00  0.00    +0.045 C 
BRANCH  37  38
ATOM     38  CD  ARG A   1      19.519  -9.017  -5.111  0.00  0.00    +0.174 C 
BRANCH  38  39
ATOM     39  NE  ARG A   1      19.431  -8.332  -3.827  0.00  0.00    -0.265 N 
ATOM     40  CZ  ARG A   1      18.575  -8.661  -2.868  0.00  0.00    +0.342 C 
ATOM     41  NH2 ARG A   1      18.548  -7.963  -1.745  0.00  0.00    -0.292 N 
ATOM     42 HH21 ARG A   1      17.879  -8.217  -0.991  0.00  0.00    +0.255 HD
ATOM     43 HH22 ARG A   1      19.196  -7.160  -1.616  0.00  0.00    +0.255 HD
ATOM     44  NH1 ARG A   1      17.736  -9.681  -3.043  0.00  0.00    -0.292 N 
ATOM     45 HH11 ARG A   1      17.066  -9.938  -2.291  0.00  0.00    +0.255 HD
ATOM     46 HH12 ARG A   1      17.751 -10.220  -3.932  0.00  0.00    +0.255 HD
ATOM     47  HE  ARG A   1      20.079  -7.537  -3.652  0.00  0.00    +0.259 HD
ENDBRANCH  38  39
ENDBRANCH  37  38
ENDBRANCH  36  37
ENDBRANCH  33  36
ENDBRANCH  29  33
ENDBRANCH  28  31
BRANCH  28  48
ATOM     48  CB  ILE A   2      20.884  -9.765 -12.969  0.00  0.00    +0.027 C 
ATOM     49  CG2 ILE A   2      20.330 -10.667 -14.077  0.00  0.00    +0.002 C 
BRANCH  48  50
ATOM     50  CG1 ILE A   2      21.182  -8.370 -13.540  0.00  0.00    +0.002 C 
ATOM     51  CD1 ILE A   2      22.309  -8.374 -14.550  0.00  0.00    +0.000 C 
ENDBRANCH  48  50
ENDBRANCH  28  48
ENDBRANCH   1  28
TORSDOF 22
REMARK  Name = ../refined-set-2016/4ca5/4ca5_pocket.pdb
REMARK  300 active torsions:
REMARK  status: ('A' for Active; 'I' for Inactive)
REMARK    1  A    between atoms: _1  and  _3
REMARK    2  A    between atoms: _3  and  _4
REMARK    3  A    between atoms: _3  and  _6
REMARK    4  A    between atoms: _6  and  _7
REMARK    5  A    between atoms: _12  and  _14
REMARK    6  A    between atoms: _14  and  _15
REMARK    7  A    between atoms: _14  and  _17
REMARK    8  A    between atoms: _17  and  _18
REMARK    9  A    between atoms: _23  and  _25
REMARK   10  A    between atoms: _25  and  _26
REMARK   11  A    between atoms: _25  and  _28
REMARK   12  A    between atoms: _28  and  _29
REMARK   13  A    between atoms: _29  and  _30
REMARK   14  A    between atoms: _33  and  _35
REMARK   15  A    between atoms: _35  and  _36
REMARK   16  A    between atoms: _35  and  _38
REMARK   17  A    between atoms: _38  and  _39
REMARK   18  A    between atoms: _44  and  _45
REMARK   19  A    between atoms: _47  and  _49
REMARK   20  A    between atoms: _49  and  _50
REMARK   21  A    between atoms: _49  and  _52
REMARK   22  A    between atoms: _52  and  _53
REMARK   23  A    between atoms: _53  and  _54
REMARK   24  A    between atoms: _57  and  _59
REMARK   25  A    between atoms: _59  and  _60
REMARK   26  A    between atoms: _59  and  _62
REMARK   27  A    between atoms: _62  and  _63
REMARK   28  A    between atoms: _66  and  _68
REMARK   29  A    between atoms: _68  and  _69
REMARK   30  A    between atoms: _71  and  _73
REMARK   31  A    between atoms: _73  and  _74
REMARK   32  A    between atoms: _73  and  _76
REMARK   33  A    between atoms: _76  and  _77
REMARK   34  A    between atoms: _82  and  _84
REMARK   35  A    between atoms: _84  and  _85
REMARK   36  A    between atoms: _84  and  _87
REMARK   37  A    between atoms: _87  and  _88
REMARK   38  A    between atoms: _88  and  _89
REMARK   39  A    between atoms: _91  and  _93
REMARK   40  A    between atoms: _93  and  _94
REMARK   41  A    between atoms: _93  and  _96
REMARK   42  A    between atoms: _96  and  _97
REMARK   43  A    between atoms: _107  and  _109
REMARK   44  A    between atoms: _109  and  _110
REMARK   45  A    between atoms: _109  and  _112
REMARK   46  A    between atoms: _112  and  _113
REMARK   47  A    between atoms: _113  and  _114
REMARK   48  A    between atoms: _119  and  _121
REMARK   49  A    between atoms: _121  and  _122
REMARK   50  A    between atoms: _121  and  _124
REMARK   51  A    between atoms: _124  and  _125
REMARK   52  A    between atoms: _128  and  _130
REMARK   53  A    between atoms: _130  and  _131
REMARK   54  A    between atoms: _130  and  _133
REMARK   55  A    between atoms: _133  and  _134
REMARK   56  A    between atoms: _144  and  _146
REMARK   57  A    between atoms: _146  and  _147
REMARK   58  A    between atoms: _146  and  _149
REMARK   59  A    between atoms: _149  and  _150
REMARK   60  A    between atoms: _152  and  _154
REMARK   61  A    between atoms: _154  and  _155
REMARK   62  A    between atoms: _154  and  _157
REMARK   63  A    between atoms: _157  and  _158
REMARK   64  A    between atoms: _163  and  _165
REMARK   65  A    between atoms: _165  and  _166
REMARK   66  A    between atoms: _165  and  _168
REMARK   67  A    between atoms: _171  and  _173
REMARK   68  A    between atoms: _173  and  _174
REMARK   69  A    between atoms: _173  and  _176
REMARK   70  A    between atoms: _178  and  _180
REMARK   71  A    between atoms: _180  and  _181
REMARK   72  A    between atoms: _180  and  _183
REMARK   73  A    between atoms: _183  and  _184
REMARK   74  A    between atoms: _189  and  _191
REMARK   75  A    between atoms: _191  and  _192
REMARK   76  A    between atoms: _195  and  _197
REMARK   77  A    between atoms: _197  and  _198
REMARK   78  A    between atoms: _197  and  _200
REMARK   79  A    between atoms: _200  and  _201
REMARK   80  A    between atoms: _203  and  _205
REMARK   81  A    between atoms: _205  and  _206
REMARK   82  A    between atoms: _209  and  _211
REMARK   83  A    between atoms: _211  and  _212
REMARK   84  A    between atoms: _211  and  _214
REMARK   85  A    between atoms: _214  and  _215
REMARK   86  A    between atoms: _225  and  _227
REMARK   87  A    between atoms: _227  and  _228
REMARK   88  A    between atoms: _227  and  _230
REMARK   89  A    between atoms: _230  and  _231
REMARK   90  A    between atoms: _234  and  _236
REMARK   91  A    between atoms: _236  and  _237
REMARK   92  A    between atoms: _236  and  _239
REMARK   93  A    between atoms: _239  and  _240
REMARK   94  A    between atoms: _245  and  _246
REMARK   95  A    between atoms: _248  and  _250
REMARK   96  A    between atoms: _250  and  _251
REMARK   97  A    between atoms: _250  and  _253
REMARK   98  A    between atoms: _253  and  _254
REMARK   99  A    between atoms: _254  and  _255
REMARK  100  A    between atoms: _255  and  _256
REMARK  101  A    between atoms: _265  and  _267
REMARK  102  A    between atoms: _267  and  _268
REMARK  103  A    between atoms: _267  and  _270
REMARK  104  A    between atoms: _270  and  _271
REMARK  105  A    between atoms: _274  and  _276
REMARK  106  A    between atoms: _276  and  _277
REMARK  107  A    between atoms: _276  and  _279
REMARK  108  A    between atoms: _279  and  _280
REMARK  109  A    between atoms: _280  and  _281
REMARK  110  A    between atoms: _281  and  _282
REMARK  111  A    between atoms: _282  and  _283
REMARK  112  A    between atoms: _287  and  _289
REMARK  113  A    between atoms: _289  and  _290
REMARK  114  A    between atoms: _289  and  _292
REMARK  115  A    between atoms: _292  and  _293
REMARK  116  A    between atoms: _293  and  _294
REMARK  117  A    between atoms: _299  and  _301
REMARK  118  A    between atoms: _301  and  _302
REMARK  119  A    between atoms: _301  and  _304
REMARK  120  A    between atoms: _304  and  _305
REMARK  121  A    between atoms: _310  and  _312
REMARK  122  A    between atoms: _312  and  _313
REMARK  123  A    between atoms: _312  and  _315
REMARK  124  A    between atoms: _315  and  _316
REMARK  125  A    between atoms: _319  and  _321
REMARK  126  A    between atoms: _321  and  _322
REMARK  127  A    between atoms: _321  and  _324
REMARK  128  A    between atoms: _324  and  _325
REMARK  129  A    between atoms: _325  and  _326
REMARK  130  A    between atoms: _329  and  _331
REMARK  131  A    between atoms: _331  and  _332
REMARK  132  A    between atoms: _331  and  _334
REMARK  133  A    between atoms: _334  and  _335
REMARK  134  A    between atoms: _338  and  _340
REMARK  135  A    between atoms: _340  and  _341
REMARK  136  A    between atoms: _340  and  _343
REMARK  137  A    between atoms: _346  and  _348
REMARK  138  A    between atoms: _348  and  _349
REMARK  139  A    between atoms: _348  and  _351
REMARK  140  A    between atoms: _354  and  _356
REMARK  141  A    between atoms: _356  and  _357
REMARK  142  A    between atoms: _360  and  _362
REMARK  143  A    between atoms: _362  and  _363
REMARK  144  A    between atoms: _362  and  _365
REMARK  145  A    between atoms: _365  and  _366
REMARK  146  A    between atoms: _371  and  _373
REMARK  147  A    between atoms: _384  and  _387
REMARK  148  A    between atoms: _387  and  _388
REMARK  149  A    between atoms: _388  and  _389
REMARK  150  A    between atoms: _394  and  _397
REMARK  151  A    between atoms: _397  and  _398
REMARK  152  A    between atoms: _398  and  _399
REMARK  153  A    between atoms: _408  and  _409
REMARK  154  A    between atoms: _417  and  _419
REMARK  155  A    between atoms: _419  and  _420
REMARK  156  A    between atoms: _419  and  _422
REMARK  157  A    between atoms: _422  and  _423
REMARK  158  A    between atoms: _426  and  _428
REMARK  159  A    between atoms: _428  and  _429
REMARK  160  A    between atoms: _428  and  _431
REMARK  161  A    between atoms: _431  and  _432
REMARK  162  A    between atoms: _437  and  _438
REMARK  163  A    between atoms: _440  and  _442
REMARK  164  A    between atoms: _442  and  _443
REMARK  165  A    between atoms: _442  and  _445
REMARK  166  A    between atoms: _445  and  _446
REMARK  167  A    between atoms: _452  and  _454
REMARK  168  A    between atoms: _454  and  _455
REMARK  169  A    between atoms: _454  and  _457
REMARK  170  A    between atoms: _457  and  _458
REMARK  171  A    between atoms: _463  and  _464
REMARK  172  A    between atoms: _466  and  _468
REMARK  173  A    between atoms: _468  and  _469
REMARK  174  A    between atoms: _468  and  _471
REMARK  175  A    between atoms: _471  and  _472
REMARK  176  A    between atoms: _472  and  _473
REMARK  177  A    between atoms: _473  and  _474
REMARK  178  A    between atoms: _483  and  _485
REMARK  179  A    between atoms: _485  and  _486
REMARK  180  A    between atoms: _485  and  _488
REMARK  181  A    between atoms: _488  and  _489
REMARK  182  A    between atoms: _489  and  _490
REMARK  183  A    between atoms: _493  and  _495
REMARK  184  A    between atoms: _495  and  _496
REMARK  185  A    between atoms: _498  and  _500
REMARK  186  A    between atoms: _500  and  _501
REMARK  187  A    between atoms: _500  and  _503
REMARK  188  A    between atoms: _503  and  _504
REMARK  189  A    between atoms: _510  and  _511
REMARK  190  A    between atoms: _516  and  _518
REMARK  191  A    between atoms: _518  and  _519
REMARK  192  A    between atoms: _521  and  _523
REMARK  193  A    between atoms: _523  and  _524
REMARK  194  A    between atoms: _523  and  _526
REMARK  195  A    between atoms: _526  and  _527
REMARK  196  A    between atoms: _533  and  _535
REMARK  197  A    between atoms: _535  and  _536
REMARK  198  A    between atoms: _535  and  _538
REMARK  199  A    between atoms: _538  and  _539
REMARK  200  A    between atoms: _544  and  _546
REMARK  201  A    between atoms: _546  and  _547
REMARK  202  A    between atoms: _546  and  _549
REMARK  203  A    between atoms: _549  and  _550
REMARK  204  A    between atoms: _550  and  _551
REMARK  205  A    between atoms: _551  and  _552
REMARK  206  A    between atoms: _552  and  ZN_793
REMARK  207  A    between atoms: _554  and  _556
REMARK  208  A    between atoms: _556  and  _557
REMARK  209  A    between atoms: _560  and  _562
REMARK  210  A    between atoms: _562  and  _563
REMARK  211  A    between atoms: _562  and  _565
REMARK  212  A    between atoms: _565  and  _566
REMARK  213  A    between atoms: _569  and  _571
REMARK  214  A    between atoms: _571  and  _572
REMARK  215  A    between atoms: _575  and  _577
REMARK  216  A    between atoms: _577  and  _578
REMARK  217  A    between atoms: _577  and  _580
REMARK  218  A    between atoms: _580  and  _581
REMARK  219  A    between atoms: _584  and  _586
REMARK  220  A    between atoms: _586  and  _587
REMARK  221  A    between atoms: _586  and  _589
REMARK  222  A    between atoms: _589  and  _590
REMARK  223  A    between atoms: _590  and  _591
REMARK  224  A    between atoms: _591  and  _592
REMARK  225  A    between atoms: _592  and  _593
REMARK  226  A    between atoms: _597  and  _599
REMARK  227  A    between atoms: _599  and  _600
REMARK  228  A    between atoms: _599  and  _602
REMARK  229  A    between atoms: _602  and  _603
REMARK  230  A    between atoms: _609  and  _611
REMARK  231  A    between atoms: _611  and  _612
REMARK  232  A    between atoms: _611  and  _614
REMARK  233  A    between atoms: _614  and  _615
REMARK  234  A    between atoms: _621  and  _623
REMARK  235  A    between atoms: _623  and  _624
REMARK  236  A    between atoms: _623  and  _626
REMARK  237  A    between atoms: _626  and  _627
REMARK  238  A    between atoms: _629  and  _631
REMARK  239  A    between atoms: _631  and  _632
REMARK  240  A    between atoms: _631  and  _634
REMARK  241  A    between atoms: _637  and  _639
REMARK  242  A    between atoms: _639  and  _640
REMARK  243  A    between atoms: _639  and  _642
REMARK  244  A    between atoms: _642  and  _643
REMARK  245  A    between atoms: _643  and  _644
REMARK  246  A    between atoms: _644  and  _645
REMARK  247  A    between atoms: _645  and  _646
REMARK  248  A    between atoms: _650  and  _652
REMARK  249  A    between atoms: _652  and  _653
REMARK  250  A    between atoms: _652  and  _655
REMARK  251  A    between atoms: _655  and  _656
REMARK  252  A    between atoms: _662  and  _664
REMARK  253  A    between atoms: _664  and  _665
REMARK  254  A    between atoms: _664  and  _667
REMARK  255  A    between atoms: _667  and  _668
REMARK  256  A    between atoms: _673  and  _675
REMARK  257  A    between atoms: _675  and  _676
REMARK  258  A    between atoms: _675  and  _678
REMARK  259  A    between atoms: _678  and  _679
REMARK  260  A    between atoms: _681  and  _683
REMARK  261  A    between atoms: _683  and  _684
REMARK  262  A    between atoms: _683  and  _686
REMARK  263  A    between atoms: _686  and  _687
REMARK  264  A    between atoms: _689  and  _691
REMARK  265  A    between atoms: _691  and  _692
REMARK  266  A    between atoms: _691  and  _694
REMARK  267  A    between atoms: _698  and  _699
REMARK  268  A    between atoms: _704  and  _706
REMARK  269  A    between atoms: _706  and  _707
REMARK  270  A    between atoms: _706  and  _709
REMARK  271  A    between atoms: _709  and  _710
REMARK  272  A    between atoms: _715  and  _716
REMARK  273  A    between atoms: _718  and  _720
REMARK  274  A    between atoms: _720  and  _721
REMARK  275  A    between atoms: _720  and  _723
REMARK  276  A    between atoms: _723  and  _724
REMARK  277  A    between atoms: _724  and  _725
REMARK  278  A    between atoms: _725  and  _726
REMARK  279  A    between atoms: _735  and  _737
REMARK  280  A    between atoms: _737  and  _738
REMARK  281  A    between atoms: _737  and  _740
REMARK  282  A    between atoms: _740  and  _741
REMARK  283  A    between atoms: _746  and  _747
REMARK  284  A    between atoms: _749  and  _751
REMARK  285  A    between atoms: _751  and  _752
REMARK  286  A    between atoms: _751  and  _754
REMARK  287  A    between atoms: _754  and  _755
REMARK  288  A    between atoms: _761  and  _763
REMARK  289  A    between atoms: _763  and  _764
REMARK  290  A    between atoms: _763  and  _766
REMARK  291  A    between atoms: _766  and  _767
REMARK  292  A    between atoms: _769  and  _771
REMARK  293  A    between atoms: _771  and  _772
REMARK  294  A    between atoms: _771  and  _774
REMARK  295  A    between atoms: _774  and  _775
REMARK  296  A    between atoms: _781  and  _783
REMARK  297  A    between atoms: _783  and  _784
REMARK  298  A    between atoms: _783  and  _786
REMARK  299  A    between atoms: _786  and  _787
REMARK  300  A    between atoms: _787  and  _788
REMARK                            x       y       z     vdW  Elec       q    Type
REMARK                         _______ _______ _______ _____ _____    ______ ____
ROOT
ATOM      1  C   LEU A   2      23.929 -15.862 -27.066  0.00  0.00    +0.241 C 
ATOM      2  O   LEU A   2      24.124 -14.719 -26.644  0.00  0.00    -0.273 OA
ATOM      3  N   GLU A   3      22.713 -16.335 -27.336  0.00  0.00    -0.297 N 
ATOM      4  H   GLU A   3      22.613 -17.285 -27.748  0.00  0.00    +0.150 HD
ENDROOT
BRANCH   3   5
ATOM      5  CA  GLU A   3      21.513 -15.537 -27.061  0.00  0.00    +0.149 C 
BRANCH   5   6
ATOM      6  C   GLU A   3      21.481 -15.051 -25.606  0.00  0.00    +0.241 C 
ATOM      7  N   ASP A   4      21.745 -15.939 -24.655  0.00  0.00    -0.298 N 
ATOM      8  H   ASP A   4      21.984 -16.922 -24.897  0.00  0.00    +0.150 HD
ATOM      9  O   GLU A   3      21.208 -13.881 -25.339  0.00  0.00    -0.273 OA
BRANCH   7  10
ATOM     10  CA  ASP A   4      21.693 -15.504 -23.255  0.00  0.00    +0.148 C 
BRANCH  10  11
ATOM     11  C   ASP A   4      22.913 -14.697 -22.822  0.00  0.00    +0.227 C 
ATOM     12  O   ASP A   4      22.835 -13.932 -21.854  0.00  0.00    -0.286 OA
ENDBRANCH  10  11
BRANCH  10  13
ATOM     13  CB  ASP A   4      21.409 -16.658 -22.296  0.00  0.00    +0.142 C 
BRANCH  13  14
ATOM     14  CG  ASP A   4      19.932 -16.987 -22.212  0.00  0.00    +0.367 C 
ATOM     15  OD2 ASP A   4      19.558 -17.755 -21.305  0.00  0.00    -0.246 OA
ATOM     16  OD1 ASP A   4      19.152 -16.486 -23.058  0.00  0.00    -0.246 OA
ENDBRANCH  13  14
ENDBRANCH  10  13
ENDBRANCH   7  10
ENDBRANCH   5   6
BRANCH   5  17
ATOM     17  CB  GLU A   3      20.263 -16.367 -27.383  0.00  0.00    +0.041 C 
BRANCH  17  18
ATOM     18  CG  GLU A   3      18.936 -15.726 -27.028  0.00  0.00    +0.116 C 
BRANCH  18  19
ATOM     19  CD  GLU A   3      17.765 -16.556 -27.537  0.00  0.00    +0.365 C 
ATOM     20  OE2 GLU A   3      17.079 -17.222 -26.728  0.00  0.00    -0.246 OA
ATOM     21  OE1 GLU A   3      17.535 -16.549 -28.755  0.00  0.00    -0.246 OA
ENDBRANCH  18  19
ENDBRANCH  17  18
ENDBRANCH   5  17
ENDBRANCH   3   5
BRANCH   1  22
ATOM     22  CA  LEU A   2      25.105 -16.808 -27.294  0.00  0.00    +0.149 C 
BRANCH  22  25
ATOM     23  C   ASN A   1      24.601 -18.458 -25.599  0.00  0.00    +0.239 C 
ATOM     24  O   ASN A   1      24.603 -17.591 -24.718  0.00  0.00    -0.274 OA
ATOM     25  N   LEU A   2      24.790 -18.174 -26.881  0.00  0.00    -0.297 N 
ATOM     26  H   LEU A   2      24.714 -18.926 -27.595  0.00  0.00    +0.150 HD
BRANCH  23  27
ATOM     27  CA  ASN A   1      24.365 -19.930 -25.251  0.00  0.00    +0.154 C 
BRANCH  27  28
ATOM     28  N   ASN A   1      24.321 -20.143 -23.796  0.00  0.00    -0.238 NA
ATOM     29  H   ASN A   1      24.121 -19.326 -23.184  0.00  0.00    +0.142 HD
ENDBRANCH  27  28
BRANCH  27  30
ATOM     30  CB  ASN A   1      23.106 -20.449 -25.964  0.00  0.00    +0.111 C 
BRANCH  30  31
ATOM     31  CG  ASN A   1      21.821 -19.843 -25.426  0.00  0.00    +0.221 C 
ATOM     32  OD1 ASN A   1      21.762 -18.668 -25.035  0.00  0.00    -0.275 OA
ATOM     33  ND2 ASN A   1      20.764 -20.650 -25.423  0.00  0.00    -0.329 N 
ATOM     34 HD21 ASN A   1      19.845 -20.302 -25.084  0.00  0.00    +0.145 HD
ATOM     35 HD22 ASN A   1      20.857 -21.630 -25.760  0.00  0.00    +0.145 HD
ENDBRANCH  30  31
ENDBRANCH  27  30
ENDBRANCH  23  27
ENDBRANCH  22  25
BRANCH  22  36
ATOM     36  CB  LEU A   2      25.589 -16.749 -28.750  0.00  0.00    +0.029 C 
BRANCH  36  37
ATOM     37  CG  LEU A   2      25.947 -15.351 -29.282  0.00  0.00    +0.002 C 
ATOM     38  CD2 LEU A   2      27.002 -14.633 -28.436  0.00  0.00    +0.000 C 
ATOM     39  CD1 LEU A   2      26.397 -15.435 -30.739  0.00  0.00    +0.000 C 
ENDBRANCH  36  37
ENDBRANCH  22  36
ENDBRANCH   1  22
TORSDOF 17
REMARK  Name = ../refined-set-2016/4ca5/4ca5_pocket.pdb
REMARK  300 active torsions:
REMARK  status: ('A' for Active; 'I' for Inactive)
REMARK    1  A    between atoms: _1  and  _3
REMARK    2  A    between atoms: _3  and  _4
REMARK    3  A    between atoms: _3  and  _6
REMARK    4  A    between atoms: _6  and  _7
REMARK    5  A    between atoms: _12  and  _14
REMARK    6  A    between atoms: _14  and  _15
REMARK    7  A    between atoms: _14  and  _17
REMARK    8  A    between atoms: _17  and  _18
REMARK    9  A    between atoms: _23  and  _25
REMARK   10  A    between atoms: _25  and  _26
REMARK   11  A    between atoms: _25  and  _28
REMARK   12  A    between atoms: _28  and  _29
REMARK   13  A    between atoms: _29  and  _30
REMARK   14  A    between atoms: _33  and  _35
REMARK   15  A    between atoms: _35  and  _36
REMARK   16  A    between atoms: _35  and  _38
REMARK   17  A    between atoms: _38  and  _39
REMARK   18  A    between atoms: _44  and  _45
REMARK   19  A    between atoms: _47  and  _49
REMARK   20  A    between atoms: _49  and  _50
REMARK   21  A    between atoms: _49  and  _52
REMARK   22  A    between atoms: _52  and  _53
REMARK   23  A    between atoms: _53  and  _54
REMARK   24  A    between atoms: _57  and  _59
REMARK   25  A    between atoms: _59  and  _60
REMARK   26  A    between atoms: _59  and  _62
REMARK   27  A    between atoms: _62  and  _63
REMARK   28  A    between atoms: _66  and  _68
REMARK   29  A    between atoms: _68  and  _69
REMARK   30  A    between atoms: _71  and  _73
REMARK   31  A    between atoms: _73  and  _74
REMARK   32  A    between atoms: _73  and  _76
REMARK   33  A    between atoms: _76  and  _77
REMARK   34  A    between atoms: _82  and  _84
REMARK   35  A    between atoms: _84  and  _85
REMARK   36  A    between atoms: _84  and  _87
REMARK   37  A    between atoms: _87  and  _88
REMARK   38  A    between atoms: _88  and  _89
REMARK   39  A    between atoms: _91  and  _93
REMARK   40  A    between atoms: _93  and  _94
REMARK   41  A    between atoms: _93  and  _96
REMARK   42  A    between atoms: _96  and  _97
REMARK   43  A    between atoms: _107  and  _109
REMARK   44  A    between atoms: _109  and  _110
REMARK   45  A    between atoms: _109  and  _112
REMARK   46  A    between atoms: _112  and  _113
REMARK   47  A    between atoms: _113  and  _114
REMARK   48  A    between atoms: _119  and  _121
REMARK   49  A    between atoms: _121  and  _122
REMARK   50  A    between atoms: _121  and  _124
REMARK   51  A    between atoms: _124  and  _125
REMARK   52  A    between atoms: _128  and  _130
REMARK   53  A    between atoms: _130  and  _131
REMARK   54  A    between atoms: _130  and  _133
REMARK   55  A    between atoms: _133  and  _134
REMARK   56  A    between atoms: _144  and  _146
REMARK   57  A    between atoms: _146  and  _147
REMARK   58  A    between atoms: _146  and  _149
REMARK   59  A    between atoms: _149  and  _150
REMARK   60  A    between atoms: _152  and  _154
REMARK   61  A    between atoms: _154  and  _155
REMARK   62  A    between atoms: _154  and  _157
REMARK   63  A    between atoms: _157  and  _158
REMARK   64  A    between atoms: _163  and  _165
REMARK   65  A    between atoms: _165  and  _166
REMARK   66  A    between atoms: _165  and  _168
REMARK   67  A    between atoms: _171  and  _173
REMARK   68  A    between atoms: _173  and  _174
REMARK   69  A    between atoms: _173  and  _176
REMARK   70  A    between atoms: _178  and  _180
REMARK   71  A    between atoms: _180  and  _181
REMARK   72  A    between atoms: _180  and  _183
REMARK   73  A    between atoms: _183  and  _184
REMARK   74  A    between atoms: _189  and  _191
REMARK   75  A    between atoms: _191  and  _192
REMARK   76  A    between atoms: _195  and  _197
REMARK   77  A    between atoms: _197  and  _198
REMARK   78  A    between atoms: _197  and  _200
REMARK   79  A    between atoms: _200  and  _201
REMARK   80  A    between atoms: _203  and  _205
REMARK   81  A    between atoms: _205  and  _206
REMARK   82  A    between atoms: _209  and  _211
REMARK   83  A    between atoms: _211  and  _212
REMARK   84  A    between atoms: _211  and  _214
REMARK   85  A    between atoms: _214  and  _215
REMARK   86  A    between atoms: _225  and  _227
REMARK   87  A    between atoms: _227  and  _228
REMARK   88  A    between atoms: _227  and  _230
REMARK   89  A    between atoms: _230  and  _231
REMARK   90  A    between atoms: _234  and  _236
REMARK   91  A    between atoms: _236  and  _237
REMARK   92  A    between atoms: _236  and  _239
REMARK   93  A    between atoms: _239  and  _240
REMARK   94  A    between atoms: _245  and  _246
REMARK   95  A    between atoms: _248  and  _250
REMARK   96  A    between atoms: _250  and  _251
REMARK   97  A    between atoms: _250  and  _253
REMARK   98  A    between atoms: _253  and  _254
REMARK   99  A    between atoms: _254  and  _255
REMARK  100  A    between atoms: _255  and  _256
REMARK  101  A    between atoms: _265  and  _267
REMARK  102  A    between atoms: _267  and  _268
REMARK  103  A    between atoms: _267  and  _270
REMARK  104  A    between atoms: _270  and  _271
REMARK  105  A    between atoms: _274  and  _276
REMARK  106  A    between atoms: _276  and  _277
REMARK  107  A    between atoms: _276  and  _279
REMARK  108  A    between atoms: _279  and  _280
REMARK  109  A    between atoms: _280  and  _281
REMARK  110  A    between atoms: _281  and  _282
REMARK  111  A    between atoms: _282  and  _283
REMARK  112  A    between atoms: _287  and  _289
REMARK  113  A    between atoms: _289  and  _290
REMARK  114  A    between atoms: _289  and  _292
REMARK  115  A    between atoms: _292  and  _293
REMARK  116  A    between atoms: _293  and  _294
REMARK  117  A    between atoms: _299  and  _301
REMARK  118  A    between atoms: _301  and  _302
REMARK  119  A    between atoms: _301  and  _304
REMARK  120  A    between atoms: _304  and  _305
REMARK  121  A    between atoms: _310  and  _312
REMARK  122  A    between atoms: _312  and  _313
REMARK  123  A    between atoms: _312  and  _315
REMARK  124  A    between atoms: _315  and  _316
REMARK  125  A    between atoms: _319  and  _321
REMARK  126  A    between atoms: _321  and  _322
REMARK  127  A    between atoms: _321  and  _324
REMARK  128  A    between atoms: _324  and  _325
REMARK  129  A    between atoms: _325  and  _326
REMARK  130  A    between atoms: _329  and  _331
REMARK  131  A    between atoms: _331  and  _332
REMARK  132  A    between atoms: _331  and  _334
REMARK  133  A    between atoms: _334  and  _335
REMARK  134  A    between atoms: _338  and  _340
REMARK  135  A    between atoms: _340  and  _341
REMARK  136  A    between atoms: _340  and  _343
REMARK  137  A    between atoms: _346  and  _348
REMARK  138  A    between atoms: _348  and  _349
REMARK  139  A    between atoms: _348  and  _351
REMARK  140  A    between atoms: _354  and  _356
REMARK  141  A    between atoms: _356  and  _357
REMARK  142  A    between atoms: _360  and  _362
REMARK  143  A    between atoms: _362  and  _363
REMARK  144  A    between atoms: _362  and  _365
REMARK  145  A    between atoms: _365  and  _366
REMARK  146  A    between atoms: _371  and  _373
REMARK  147  A    between atoms: _384  and  _387
REMARK  148  A    between atoms: _387  and  _388
REMARK  149  A    between atoms: _388  and  _389
REMARK  150  A    between atoms: _394  and  _397
REMARK  151  A    between atoms: _397  and  _398
REMARK  152  A    between atoms: _398  and  _399
REMARK  153  A    between atoms: _408  and  _409
REMARK  154  A    between atoms: _417  and  _419
REMARK  155  A    between atoms: _419  and  _420
REMARK  156  A    between atoms: _419  and  _422
REMARK  157  A    between atoms: _422  and  _423
REMARK  158  A    between atoms: _426  and  _428
REMARK  159  A    between atoms: _428  and  _429
REMARK  160  A    between atoms: _428  and  _431
REMARK  161  A    between atoms: _431  and  _432
REMARK  162  A    between atoms: _437  and  _438
REMARK  163  A    between atoms: _440  and  _442
REMARK  164  A    between atoms: _442  and  _443
REMARK  165  A    between atoms: _442  and  _445
REMARK  166  A    between atoms: _445  and  _446
REMARK  167  A    between atoms: _452  and  _454
REMARK  168  A    between atoms: _454  and  _455
REMARK  169  A    between atoms: _454  and  _457
REMARK  170  A    between atoms: _457  and  _458
REMARK  171  A    between atoms: _463  and  _464
REMARK  172  A    between atoms: _466  and  _468
REMARK  173  A    between atoms: _468  and  _469
REMARK  174  A    between atoms: _468  and  _471
REMARK  175  A    between atoms: _471  and  _472
REMARK  176  A    between atoms: _472  and  _473
REMARK  177  A    between atoms: _473  and  _474
REMARK  178  A    between atoms: _483  and  _485
REMARK  179  A    between atoms: _485  and  _486
REMARK  180  A    between atoms: _485  and  _488
REMARK  181  A    between atoms: _488  and  _489
REMARK  182  A    between atoms: _489  and  _490
REMARK  183  A    between atoms: _493  and  _495
REMARK  184  A    between atoms: _495  and  _496
REMARK  185  A    between atoms: _498  and  _500
REMARK  186  A    between atoms: _500  and  _501
REMARK  187  A    between atoms: _500  and  _503
REMARK  188  A    between atoms: _503  and  _504
REMARK  189  A    between atoms: _510  and  _511
REMARK  190  A    between atoms: _516  and  _518
REMARK  191  A    between atoms: _518  and  _519
REMARK  192  A    between atoms: _521  and  _523
REMARK  193  A    between atoms: _523  and  _524
REMARK  194  A    between atoms: _523  and  _526
REMARK  195  A    between atoms: _526  and  _527
REMARK  196  A    between atoms: _533  and  _535
REMARK  197  A    between atoms: _535  and  _536
REMARK  198  A    between atoms: _535  and  _538
REMARK  199  A    between atoms: _538  and  _539
REMARK  200  A    between atoms: _544  and  _546
REMARK  201  A    between atoms: _546  and  _547
REMARK  202  A    between atoms: _546  and  _549
REMARK  203  A    between atoms: _549  and  _550
REMARK  204  A    between atoms: _550  and  _551
REMARK  205  A    between atoms: _551  and  _552
REMARK  206  A    between atoms: _552  and  ZN_793
REMARK  207  A    between atoms: _554  and  _556
REMARK  208  A    between atoms: _556  and  _557
REMARK  209  A    between atoms: _560  and  _562
REMARK  210  A    between atoms: _562  and  _563
REMARK  211  A    between atoms: _562  and  _565
REMARK  212  A    between atoms: _565  and  _566
REMARK  213  A    between atoms: _569  and  _571
REMARK  214  A    between atoms: _571  and  _572
REMARK  215  A    between atoms: _575  and  _577
REMARK  216  A    between atoms: _577  and  _578
REMARK  217  A    between atoms: _577  and  _580
REMARK  218  A    between atoms: _580  and  _581
REMARK  219  A    between atoms: _584  and  _586
REMARK  220  A    between atoms: _586  and  _587
REMARK  221  A    between atoms: _586  and  _589
REMARK  222  A    between atoms: _589  and  _590
REMARK  223  A    between atoms: _590  and  _591
REMARK  224  A    between atoms: _591  and  _592
REMARK  225  A    between atoms: _592  and  _593
REMARK  226  A    between atoms: _597  and  _599
REMARK  227  A    between atoms: _599  and  _600
REMARK  228  A    between atoms: _599  and  _602
REMARK  229  A    between atoms: _602  and  _603
REMARK  230  A    between atoms: _609  and  _611
REMARK  231  A    between atoms: _611  and  _612
REMARK  232  A    between atoms: _611  and  _614
REMARK  233  A    between atoms: _614  and  _615
REMARK  234  A    between atoms: _621  and  _623
REMARK  235  A    between atoms: _623  and  _624
REMARK  236  A    between atoms: _623  and  _626
REMARK  237  A    between atoms: _626  and  _627
REMARK  238  A    between atoms: _629  and  _631
REMARK  239  A    between atoms: _631  and  _632
REMARK  240  A    between atoms: _631  and  _634
REMARK  241  A    between atoms: _637  and  _639
REMARK  242  A    between atoms: _639  and  _640
REMARK  243  A    between atoms: _639  and  _642
REMARK  244  A    between atoms: _642  and  _643
REMARK  245  A    between atoms: _643  and  _644
REMARK  246  A    between atoms: _644  and  _645
REMARK  247  A    between atoms: _645  and  _646
REMARK  248  A    between atoms: _650  and  _652
REMARK  249  A    between atoms: _652  and  _653
REMARK  250  A    between atoms: _652  and  _655
REMARK  251  A    between atoms: _655  and  _656
REMARK  252  A    between atoms: _662  and  _664
REMARK  253  A    between atoms: _664  and  _665
REMARK  254  A    between atoms: _664  and  _667
REMARK  255  A    between atoms: _667  and  _668
REMARK  256  A    between atoms: _673  and  _675
REMARK  257  A    between atoms: _675  and  _676
REMARK  258  A    between atoms: _675  and  _678
REMARK  259  A    between atoms: _678  and  _679
REMARK  260  A    between atoms: _681  and  _683
REMARK  261  A    between atoms: _683  and  _684
REMARK  262  A    between atoms: _683  and  _686
REMARK  263  A    between atoms: _686  and  _687
REMARK  264  A    between atoms: _689  and  _691
REMARK  265  A    between atoms: _691  and  _692
REMARK  266  A    between atoms: _691  and  _694
REMARK  267  A    between atoms: _698  and  _699
REMARK  268  A    between atoms: _704  and  _706
REMARK  269  A    between atoms: _706  and  _707
REMARK  270  A    between atoms: _706  and  _709
REMARK  271  A    between atoms: _709  and  _710
REMARK  272  A    between atoms: _715  and  _716
REMARK  273  A    between atoms: _718  and  _720
REMARK  274  A    between atoms: _720  and  _721
REMARK  275  A    between atoms: _720  and  _723
REMARK  276  A    between atoms: _723  and  _724
REMARK  277  A    between atoms: _724  and  _725
REMARK  278  A    between atoms: _725  and  _726
REMARK  279  A    between atoms: _735  and  _737
REMARK  280  A    between atoms: _737  and  _738
REMARK  281  A    between atoms: _737  and  _740
REMARK  282  A    between atoms: _740  and  _741
REMARK  283  A    between atoms: _746  and  _747
REMARK  284  A    between atoms: _749  and  _751
REMARK  285  A    between atoms: _751  and  _752
REMARK  286  A    between atoms: _751  and  _754
REMARK  287  A    between atoms: _754  and  _755
REMARK  288  A    between atoms: _761  and  _763
REMARK  289  A    between atoms: _763  and  _764
REMARK  290  A    between atoms: _763  and  _766
REMARK  291  A    between atoms: _766  and  _767
REMARK  292  A    between atoms: _769  and  _771
REMARK  293  A    between atoms: _771  and  _772
REMARK  294  A    between atoms: _771  and  _774
REMARK  295  A    between atoms: _774  and  _775
REMARK  296  A    between atoms: _781  and  _783
REMARK  297  A    between atoms: _783  and  _784
REMARK  298  A    between atoms: _783  and  _786
REMARK  299  A    between atoms: _786  and  _787
REMARK  300  A    between atoms: _787  and  _788
REMARK                            x       y       z     vdW  Elec       q    Type
REMARK                         _______ _______ _______ _____ _____    ______ ____
ROOT
ATOM      1  C   UNK A   5      21.140  -6.236 -21.788  0.00  0.00    +0.000 C 
ATOM      2  C   UNK A   5      20.833  -5.932 -20.320  0.00  0.00    +0.000 C 
ATOM      3  N   UNK A   6      20.806  -6.978 -19.496  0.00  0.00    +0.000 N 
ATOM      4  C   UNK A   6      20.475  -6.810 -18.073  0.00  0.00    +0.000 C 
ATOM      5  C   UNK A   6      21.564  -6.024 -17.334  0.00  0.00    +0.000 C 
ATOM      6  O   UNK A   6      21.256  -5.197 -16.467  0.00  0.00    +0.000 OA
ATOM      7  N   ALA A   7      22.824  -6.284 -17.674  0.00  0.00    +0.000 N 
ATOM      8  CA  ALA A   7      23.940  -5.560 -17.052  0.00  0.00    +0.000 C 
ATOM      9  C   ALA A   7      23.924  -4.076 -17.416  0.00  0.00    +0.000 C 
ATOM     10  O   ALA A   7      24.407  -3.219 -16.645  0.00  0.00    +0.000 OA
ATOM     11  N   GLY A   8      23.341  -3.775 -18.579  0.00  0.00    +0.000 N 
ATOM     12  CA  GLY A   8      23.046  -2.384 -18.951  0.00  0.00    +0.000 C 
ATOM     13  C   GLY A   8      22.153  -1.658 -17.946  0.00  0.00    +0.000 C 
ATOM     14  N   UNK A   9      21.064  -2.299 -17.513  0.00  0.00    +0.000 N 
ATOM     15  C   UNK A   9      20.173  -1.694 -16.516  0.00  0.00    +0.000 C 
ATOM     16  C   UNK A   9      18.952  -2.570 -16.229  0.00  0.00    +0.000 C 
ATOM     17  C   UNK A   9      17.988  -2.685 -17.365  0.00  0.00    +0.000 A 
ATOM     18  C   UNK A   9      17.430  -3.769 -17.952  0.00  0.00    +0.000 A 
ATOM     19  N   UNK A   9      16.573  -3.304 -18.925  0.00  0.00    +0.000 N 
ATOM     20  C   UNK A   9      16.589  -1.982 -18.915  0.00  0.00    +0.000 A 
ATOM     21 ZN   UNK A   9      15.490  -4.326 -20.315  0.00  0.00    +0.000 Zn
ATOM     22  N   UNK A   5      16.774  -5.152 -21.730  0.00  0.00    +0.000 N 
ATOM     23  C   UNK A   5      17.689  -6.124 -21.391  0.00  0.00    +0.000 A 
ATOM     24  C   UNK A   5      18.660  -6.108 -22.340  0.00  0.00    +0.000 A 
ATOM     25  N   UNK A   5      18.318  -5.102 -23.220  0.00  0.00    +0.000 NA
ATOM     26  C   UNK A   5      17.177  -4.551 -22.838  0.00  0.00    +0.000 A 
ATOM     27  N   UNK A   9      17.423  -1.584 -17.974  0.00  0.00    +0.000 NA
ATOM     28  H   UNK A   9      20.844  -3.243 -17.889  0.00  0.00    +0.000 HD
ATOM     29  O   GLY A   8      22.437  -0.522 -17.577  0.00  0.00    +0.000 OA
ATOM     30  H   GLY A   8      23.090  -4.541 -19.236  0.00  0.00    +0.000 HD
ATOM     31  H   ALA A   7      23.021  -7.011 -18.391  0.00  0.00    +0.000 HD
ATOM     32  H   UNK A   6      21.022  -7.926 -19.864  0.00  0.00    +0.000 HD
ATOM     33  O   UNK A   5      20.626  -4.760 -19.934  0.00  0.00    +0.000 OA
ATOM     34  C   UNK A   5      19.924  -6.901 -22.474  0.00  0.00    +0.000 C 
ENDROOT
BRANCH  15  35
ATOM     35  C   UNK A   9      20.922  -1.510 -15.206  0.00  0.00    +0.000 C 
ATOM     36  O   UNK A   9      20.746  -0.494 -14.546  0.00  0.00    +0.000 OA
ATOM     37  N   ILE A  10      21.729  -2.507 -14.827  0.00  0.00    +0.000 N 
ATOM     38  H   ILE A  10      21.805  -3.359 -15.419  0.00  0.00    +0.000 HD
BRANCH  37  39
ATOM     39  CA  ILE A  10      22.513  -2.415 -13.579  0.00  0.00    +0.000 C 
BRANCH  39  40
ATOM     40  C   ILE A  10      23.462  -1.222 -13.629  0.00  0.00    +0.000 C 
ATOM     41  O   ILE A  10      23.570  -0.453 -12.657  0.00  0.00    +0.000 OA
ENDBRANCH  39  40
BRANCH  39  42
ATOM     42  CB  ILE A  10      23.301  -3.712 -13.263  0.00  0.00    +0.000 C 
ATOM     43  CG2 ILE A  10      24.193  -3.526 -12.038  0.00  0.00    +0.000 C 
BRANCH  42  44
ATOM     44  CG1 ILE A  10      22.360  -4.906 -13.065  0.00  0.00    +0.000 C 
ATOM     45  CD1 ILE A  10      21.386  -4.811 -11.901  0.00  0.00    +0.000 C 
ENDBRANCH  42  44
ENDBRANCH  39  42
ENDBRANCH  37  39
ENDBRANCH  15  35
BRANCH   1  48
ATOM     46  C   PHE A   4      23.506  -6.723 -21.343  0.00  0.00    +0.000 C 
ATOM     47  O   PHE A   4      23.693  -5.671 -20.764  0.00  0.00    +0.000 OA
ATOM     48  N   UNK A   5      22.342  -7.070 -21.906  0.00  0.00    +0.000 N 
ATOM     49  H   UNK A   5      22.288  -7.958 -22.444  0.00  0.00    +0.000 HD
BRANCH  46  50
ATOM     50  CA  PHE A   4      24.640  -7.724 -21.448  0.00  0.00    +0.000 C 
BRANCH  50  53
ATOM     51  C   GLY A   3      23.699  -9.433 -19.963  0.00  0.00    +0.000 C 
ATOM     52  O   GLY A   3      23.661  -8.665 -18.987  0.00  0.00    +0.000 OA
ATOM     53  N   PHE A   4      24.146  -9.076 -21.175  0.00  0.00    +0.000 N 
ATOM     54  H   PHE A   4      24.142  -9.778 -21.943  0.00  0.00    +0.000 HD
BRANCH  51  55
ATOM     55  CA  GLY A   3      23.184 -10.863 -19.835  0.00  0.00    +0.000 C 
ATOM     56  CB  GLY A   3      24.340 -11.835 -19.624  0.00  0.00    +0.000 C 
BRANCH  55  59
ATOM     57  C   PRO A   2      21.344 -10.533 -21.410  0.00  0.00    +0.000 C 
ATOM     58  O   PRO A   2      20.951  -9.535 -20.810  0.00  0.00    +0.000 OA
ATOM     59  N   GLY A   3      22.392 -11.247 -21.007  0.00  0.00    +0.000 N 
ATOM     60  H   GLY A   3      22.656 -12.101 -21.538  0.00  0.00    +0.000 HD
BRANCH  57  61
ATOM     61  CA  PRO A   2      20.618 -11.012 -22.665  0.00  0.00    +0.000 C 
BRANCH  61  63
ATOM     62  C   ASN A   1      22.477 -10.505 -24.167  0.00  0.00    +0.000 C 
ATOM     63  N   PRO A   2      21.570 -11.373 -23.724  0.00  0.00    +0.000 N 
ATOM     64  H   PRO A   2      21.535 -12.327 -24.136  0.00  0.00    +0.000 HD
ATOM     65  O   ASN A   1      22.541  -9.341 -23.764  0.00  0.00    +0.000 OA
BRANCH  62  66
ATOM     66  CA  ASN A   1      23.495 -11.025 -25.193  0.00  0.00    +0.000 C 
BRANCH  66  67
ATOM     67  CB  ASN A   1      22.939 -11.048 -26.633  0.00  0.00    +0.000 C 
ATOM     68  CG2 ASN A   1      22.264  -9.728 -26.989  0.00  0.00    +0.000 C 
ATOM     69  CG1 ASN A   1      24.070 -11.349 -27.607  0.00  0.00    +0.000 C 
ENDBRANCH  66  67
BRANCH  66  70
ATOM     70  N   ASN A   1      24.011 -12.347 -24.794  0.00  0.00    +0.000 NA
ATOM     71  H   ASN A   1      23.793 -13.176 -25.383  0.00  0.00    +0.000 HD
ENDBRANCH  66  70
ENDBRANCH  62  66
ENDBRANCH  61  63
BRANCH  61  72
ATOM     72  CB  PRO A   2      19.646 -12.163 -22.306  0.00  0.00    +0.000 C 
ATOM     73  CG2 PRO A   2      18.716 -11.757 -21.160  0.00  0.00    +0.000 C 
ATOM     74  CG1 PRO A   2      18.809 -12.572 -23.516  0.00  0.00    +0.000 C 
ENDBRANCH  61  72
ENDBRANCH  57  61
ENDBRANCH  55  59
ENDBRANCH  51  55
ENDBRANCH  50  53
BRANCH  50  75
ATOM     75  CB  PHE A   4      25.298  -7.639 -22.826  0.00  0.00    +0.000 C 
BRANCH  75  76
ATOM     76  CG  PHE A   4      26.702  -8.152 -22.835  0.00  0.00    +0.000 A 
ATOM     77  CD2 PHE A   4      27.888  -7.502 -22.777  0.00  0.00    +0.000 A 
ATOM     78  NE2 PHE A   4      28.875  -8.460 -22.771  0.00  0.00    +0.000 NA
ATOM     79  CE1 PHE A   4      28.313  -9.656 -22.817  0.00  0.00    +0.000 A 
ATOM     80  ND1 PHE A   4      27.000  -9.499 -22.850  0.00  0.00    +0.000 NA
ENDBRANCH  75  76
ENDBRANCH  50  75
ENDBRANCH  46  50
ENDBRANCH   1  48
BRANCH   4  81
ATOM     81  C   UNK A   6      20.209  -8.160 -17.377  0.00  0.00    +0.000 C 
BRANCH  81  82
ATOM     82  C   UNK A   6      19.178  -9.061 -18.064  0.00  0.00    +0.000 C 
BRANCH  82  83
ATOM     83  C   UNK A   6      17.842  -8.380 -18.294  0.00  0.00    +0.000 C 
ATOM     84  O   UNK A   6      17.479  -7.490 -17.492  0.00  0.00    +0.000 OA
ATOM     85  O   UNK A   6      17.167  -8.737 -19.284  0.00  0.00    +0.000 OA
ENDBRANCH  82  83
ENDBRANCH  81  82
ENDBRANCH   4  81
BRANCH  21  86
ATOM     86  O   UNK A   6      14.987  -2.870 -21.535  0.00  0.00    +0.000 OA
BRANCH  86  87
ATOM     87  C   UNK A   6      14.315  -1.829 -21.314  0.00  0.00    +0.000 C 
ATOM     88  O   UNK A   6      13.675  -1.653 -20.246  0.00  0.00    +0.000 OA
BRANCH  87  89
ATOM     89  C   UNK A   6      14.262  -0.755 -22.392  0.00  0.00    +0.000 C 
BRANCH  89  90
ATOM     90  C   UNK A   6      15.527  -0.707 -23.248  0.00  0.00    +0.000 C 
BRANCH  90  91
ATOM     91  C   UNK A   6      16.838  -0.520 -22.466  0.00  0.00    +0.000 C 
BRANCH  91  92
ATOM     92  C   UNK A   6      18.032  -0.597 -23.423  0.00  0.00    +0.000 C 
ATOM     93  O   UNK A   6      18.504  -1.701 -23.733  0.00  0.00    +0.000 OA
ATOM     94  N   ALA A   7      18.532   0.563 -23.869  0.00  0.00    +0.000 N 
ATOM     95  H   ALA A   7      18.194   1.454 -23.452  0.00  0.00    +0.000 HD
BRANCH  94  96
ATOM     96  CA  ALA A   7      19.555   0.611 -24.941  0.00  0.00    +0.000 C 
ATOM     97  CB  ALA A   7      19.498   1.950 -25.688  0.00  0.00    +0.000 C 
BRANCH  96  98
ATOM     98  C   ALA A   7      20.982   0.336 -24.478  0.00  0.00    +0.000 C 
ATOM     99  O   ALA A   7      21.780  -0.212 -25.233  0.00  0.00    +0.000 OA
ENDBRANCH  96  98
ENDBRANCH  94  96
ENDBRANCH  91  92
BRANCH  91 100
ATOM    100  N   UNK A   6      16.807   0.726 -21.710  0.00  0.00    +0.000 N 
ATOM    101  C   UNK A   5      17.650   0.968 -20.702  0.00  0.00    +0.000 C 
ATOM    102  O   UNK A   5      18.529   0.191 -20.352  0.00  0.00    +0.000 OA
ATOM    103  H   UNK A   6      16.105   1.451 -21.964  0.00  0.00    +0.000 HD
BRANCH 101 104
ATOM    104  C   UNK A   5      17.495   2.315 -19.998  0.00  0.00    +0.000 C 
BRANCH 104 105
ATOM    105  N   UNK A   5      17.192   3.351 -20.987  0.00  0.00    +0.000 N 
ATOM    106  H   UNK A   5      16.275   3.839 -20.941  0.00  0.00    +0.000 HD
ATOM    107  C   PHE A   4      18.051   3.685 -21.939  0.00  0.00    +0.000 C 
ATOM    108  O   PHE A   4      19.143   3.114 -22.102  0.00  0.00    +0.000 OA
BRANCH 107 109
ATOM    109  CA  PHE A   4      17.608   4.831 -22.851  0.00  0.00    +0.000 C 
BRANCH 109 110
ATOM    110  N   PHE A   4      16.187   4.697 -23.235  0.00  0.00    +0.000 N 
ATOM    111  H   PHE A   4      15.520   5.451 -22.975  0.00  0.00    +0.000 HD
ATOM    112  C   GLY A   3      15.735   3.631 -23.909  0.00  0.00    +0.000 C 
ATOM    113  O   GLY A   3      16.477   2.713 -24.289  0.00  0.00    +0.000 OA
BRANCH 112 114
ATOM    114  CA  GLY A   3      14.229   3.561 -24.190  0.00  0.00    +0.000 C 
BRANCH 114 115
ATOM    115  N   GLY A   3      13.389   4.103 -23.117  0.00  0.00    +0.000 N 
ATOM    116  C   PRO A   2      13.412   3.583 -21.888  0.00  0.00    +0.000 C 
ATOM    117  O   PRO A   2      14.072   2.575 -21.597  0.00  0.00    +0.000 OA
ATOM    118  H   GLY A   3      12.763   4.909 -23.318  0.00  0.00    +0.000 HD
BRANCH 116 119
ATOM    119  CA  PRO A   2      12.587   4.286 -20.798  0.00  0.00    +0.000 C 
ATOM    120  CB  PRO A   2      11.138   3.784 -20.791  0.00  0.00    +0.000 C 
ATOM    121  CG  PRO A   2      10.371   4.947 -20.232  0.00  0.00    +0.000 C 
ATOM    122  CD  PRO A   2      11.028   6.153 -20.880  0.00  0.00    +0.000 C 
ATOM    123  N   PRO A   2      12.443   5.742 -20.981  0.00  0.00    +0.000 N 
ATOM    124  C   ASN A   1      13.567   6.498 -21.025  0.00  0.00    +0.000 C 
ATOM    125  O   ASN A   1      14.688   6.012 -20.871  0.00  0.00    +0.000 OA
BRANCH 124 126
ATOM    126  CA  ASN A   1      13.442   8.031 -21.170  0.00  0.00    +0.000 C 
BRANCH 126 127
ATOM    127  N   ASN A   1      14.781   8.567 -20.926  0.00  0.00    +0.000 NA
ATOM    128  H   ASN A   1      15.598   8.052 -21.311  0.00  0.00    +0.000 HD
ENDBRANCH 126 127
BRANCH 126 129
ATOM    129  CB  ASN A   1      12.823   8.562 -22.492  0.00  0.00    +0.000 C 
BRANCH 129 130
ATOM    130  CG  ASN A   1      13.494   8.011 -23.749  0.00  0.00    +0.000 C 
ATOM    131  OD1 ASN A   1      13.746   6.812 -23.859  0.00  0.00    +0.000 OA
ATOM    132  ND2 ASN A   1      13.764   8.889 -24.714  0.00  0.00    +0.000 N 
ATOM    133 HD21 ASN A   1      13.535   9.895 -24.581  0.00  0.00    +0.000 HD
ATOM    134 HD22 ASN A   1      14.204   8.569 -25.600  0.00  0.00    +0.000 HD
ENDBRANCH 129 130
ENDBRANCH 126 129
ENDBRANCH 124 126
ENDBRANCH 116 119
ENDBRANCH 114 115
ENDBRANCH 112 114
ENDBRANCH 109 110
BRANCH 109 135
ATOM    135  CB  PHE A   4      17.887   6.188 -22.159  0.00  0.00    +0.000 C 
BRANCH 135 136
ATOM    136  CG  PHE A   4      18.104   7.344 -23.121  0.00  0.00    +0.000 A 
ATOM    137  CD2 PHE A   4      19.322   8.026 -23.155  0.00  0.00    +0.000 A 
ATOM    138  CE2 PHE A   4      19.522   9.097 -24.031  0.00  0.00    +0.000 A 
ATOM    139  CZ  PHE A   4      18.508   9.485 -24.903  0.00  0.00    +0.000 A 
ATOM    140  CE1 PHE A   4      17.293   8.813 -24.885  0.00  0.00    +0.000 A 
ATOM    141  CD1 PHE A   4      17.094   7.756 -23.987  0.00  0.00    +0.000 A 
ENDBRANCH 135 136
ENDBRANCH 109 135
ENDBRANCH 107 109
ENDBRANCH 104 105
BRANCH 104 142
ATOM    142  C   UNK A   5      16.397   2.245 -18.937  0.00  0.00    +0.000 C 
BRANCH 142 143
ATOM    143  C   UNK A   5      16.917   2.129 -17.533  0.00  0.00    +0.000 A 
ATOM    144  C   UNK A   5      16.836   2.983 -16.484  0.00  0.00    +0.000 A 
ATOM    145  N   UNK A   5      17.465   2.381 -15.419  0.00  0.00    +0.000 NA
ATOM    146  C   UNK A   5      17.925   1.203 -15.804  0.00  0.00    +0.000 A 
ATOM    147  N   UNK A   5      17.609   1.026 -17.078  0.00  0.00    +0.000 NA
ENDBRANCH 142 143
ENDBRANCH 104 142
ENDBRANCH 101 104
ENDBRANCH  91 100
ENDBRANCH  90  91
ENDBRANCH  89  90
ENDBRANCH  87  89
ENDBRANCH  86  87
ENDBRANCH  21  86
BRANCH   8 148
ATOM    148  CB  ALA A   7      25.290  -6.232 -17.358  0.00  0.00    +0.000 C 
BRANCH 148 149
ATOM    149  CG  ALA A   7      25.443  -7.576 -16.656  0.00  0.00    +0.000 C 
BRANCH 149 150
ATOM    150  SD  ALA A   7      25.903  -7.393 -14.920  0.00  0.00    +0.000 S 
ATOM    151  CE  ALA A   7      27.665  -7.077 -15.059  0.00  0.00    +0.000 C 
ENDBRANCH 149 150
ENDBRANCH 148 149
ENDBRANCH   8 148
TORSDOF 48
REMARK  Name = ../refined-set-2016/4ca5/4ca5_pocket.pdb
REMARK  300 active torsions:
REMARK  status: ('A' for Active; 'I' for Inactive)
REMARK    1  A    between atoms: _1  and  _3
REMARK    2  A    between atoms: _3  and  _4
REMARK    3  A    between atoms: _3  and  _6
REMARK    4  A    between atoms: _6  and  _7
REMARK    5  A    between atoms: _12  and  _14
REMARK    6  A    between atoms: _14  and  _15
REMARK    7  A    between atoms: _14  and  _17
REMARK    8  A    between atoms: _17  and  _18
REMARK    9  A    between atoms: _23  and  _25
REMARK   10  A    between atoms: _25  and  _26
REMARK   11  A    between atoms: _25  and  _28
REMARK   12  A    between atoms: _28  and  _29
REMARK   13  A    between atoms: _29  and  _30
REMARK   14  A    between atoms: _33  and  _35
REMARK   15  A    between atoms: _35  and  _36
REMARK   16  A    between atoms: _35  and  _38
REMARK   17  A    between atoms: _38  and  _39
REMARK   18  A    between atoms: _44  and  _45
REMARK   19  A    between atoms: _47  and  _49
REMARK   20  A    between atoms: _49  and  _50
REMARK   21  A    between atoms: _49  and  _52
REMARK   22  A    between atoms: _52  and  _53
REMARK   23  A    between atoms: _53  and  _54
REMARK   24  A    between atoms: _57  and  _59
REMARK   25  A    between atoms: _59  and  _60
REMARK   26  A    between atoms: _59  and  _62
REMARK   27  A    between atoms: _62  and  _63
REMARK   28  A    between atoms: _66  and  _68
REMARK   29  A    between atoms: _68  and  _69
REMARK   30  A    between atoms: _71  and  _73
REMARK   31  A    between atoms: _73  and  _74
REMARK   32  A    between atoms: _73  and  _76
REMARK   33  A    between atoms: _76  and  _77
REMARK   34  A    between atoms: _82  and  _84
REMARK   35  A    between atoms: _84  and  _85
REMARK   36  A    between atoms: _84  and  _87
REMARK   37  A    between atoms: _87  and  _88
REMARK   38  A    between atoms: _88  and  _89
REMARK   39  A    between atoms: _91  and  _93
REMARK   40  A    between atoms: _93  and  _94
REMARK   41  A    between atoms: _93  and  _96
REMARK   42  A    between atoms: _96  and  _97
REMARK   43  A    between atoms: _107  and  _109
REMARK   44  A    between atoms: _109  and  _110
REMARK   45  A    between atoms: _109  and  _112
REMARK   46  A    between atoms: _112  and  _113
REMARK   47  A    between atoms: _113  and  _114
REMARK   48  A    between atoms: _119  and  _121
REMARK   49  A    between atoms: _121  and  _122
REMARK   50  A    between atoms: _121  and  _124
REMARK   51  A    between atoms: _124  and  _125
REMARK   52  A    between atoms: _128  and  _130
REMARK   53  A    between atoms: _130  and  _131
REMARK   54  A    between atoms: _130  and  _133
REMARK   55  A    between atoms: _133  and  _134
REMARK   56  A    between atoms: _144  and  _146
REMARK   57  A    between atoms: _146  and  _147
REMARK   58  A    between atoms: _146  and  _149
REMARK   59  A    between atoms: _149  and  _150
REMARK   60  A    between atoms: _152  and  _154
REMARK   61  A    between atoms: _154  and  _155
REMARK   62  A    between atoms: _154  and  _157
REMARK   63  A    between atoms: _157  and  _158
REMARK   64  A    between atoms: _163  and  _165
REMARK   65  A    between atoms: _165  and  _166
REMARK   66  A    between atoms: _165  and  _168
REMARK   67  A    between atoms: _171  and  _173
REMARK   68  A    between atoms: _173  and  _174
REMARK   69  A    between atoms: _173  and  _176
REMARK   70  A    between atoms: _178  and  _180
REMARK   71  A    between atoms: _180  and  _181
REMARK   72  A    between atoms: _180  and  _183
REMARK   73  A    between atoms: _183  and  _184
REMARK   74  A    between atoms: _189  and  _191
REMARK   75  A    between atoms: _191  and  _192
REMARK   76  A    between atoms: _195  and  _197
REMARK   77  A    between atoms: _197  and  _198
REMARK   78  A    between atoms: _197  and  _200
REMARK   79  A    between atoms: _200  and  _201
REMARK   80  A    between atoms: _203  and  _205
REMARK   81  A    between atoms: _205  and  _206
REMARK   82  A    between atoms: _209  and  _211
REMARK   83  A    between atoms: _211  and  _212
REMARK   84  A    between atoms: _211  and  _214
REMARK   85  A    between atoms: _214  and  _215
REMARK   86  A    between atoms: _225  and  _227
REMARK   87  A    between atoms: _227  and  _228
REMARK   88  A    between atoms: _227  and  _230
REMARK   89  A    between atoms: _230  and  _231
REMARK   90  A    between atoms: _234  and  _236
REMARK   91  A    between atoms: _236  and  _237
REMARK   92  A    between atoms: _236  and  _239
REMARK   93  A    between atoms: _239  and  _240
REMARK   94  A    between atoms: _245  and  _246
REMARK   95  A    between atoms: _248  and  _250
REMARK   96  A    between atoms: _250  and  _251
REMARK   97  A    between atoms: _250  and  _253
REMARK   98  A    between atoms: _253  and  _254
REMARK   99  A    between atoms: _254  and  _255
REMARK  100  A    between atoms: _255  and  _256
REMARK  101  A    between atoms: _265  and  _267
REMARK  102  A    between atoms: _267  and  _268
REMARK  103  A    between atoms: _267  and  _270
REMARK  104  A    between atoms: _270  and  _271
REMARK  105  A    between atoms: _274  and  _276
REMARK  106  A    between atoms: _276  and  _277
REMARK  107  A    between atoms: _276  and  _279
REMARK  108  A    between atoms: _279  and  _280
REMARK  109  A    between atoms: _280  and  _281
REMARK  110  A    between atoms: _281  and  _282
REMARK  111  A    between atoms: _282  and  _283
REMARK  112  A    between atoms: _287  and  _289
REMARK  113  A    between atoms: _289  and  _290
REMARK  114  A    between atoms: _289  and  _292
REMARK  115  A    between atoms: _292  and  _293
REMARK  116  A    between atoms: _293  and  _294
REMARK  117  A    between atoms: _299  and  _301
REMARK  118  A    between atoms: _301  and  _302
REMARK  119  A    between atoms: _301  and  _304
REMARK  120  A    between atoms: _304  and  _305
REMARK  121  A    between atoms: _310  and  _312
REMARK  122  A    between atoms: _312  and  _313
REMARK  123  A    between atoms: _312  and  _315
REMARK  124  A    between atoms: _315  and  _316
REMARK  125  A    between atoms: _319  and  _321
REMARK  126  A    between atoms: _321  and  _322
REMARK  127  A    between atoms: _321  and  _324
REMARK  128  A    between atoms: _324  and  _325
REMARK  129  A    between atoms: _325  and  _326
REMARK  130  A    between atoms: _329  and  _331
REMARK  131  A    between atoms: _331  and  _332
REMARK  132  A    between atoms: _331  and  _334
REMARK  133  A    between atoms: _334  and  _335
REMARK  134  A    between atoms: _338  and  _340
REMARK  135  A    between atoms: _340  and  _341
REMARK  136  A    between atoms: _340  and  _343
REMARK  137  A    between atoms: _346  and  _348
REMARK  138  A    between atoms: _348  and  _349
REMARK  139  A    between atoms: _348  and  _351
REMARK  140  A    between atoms: _354  and  _356
REMARK  141  A    between atoms: _356  and  _357
REMARK  142  A    between atoms: _360  and  _362
REMARK  143  A    between atoms: _362  and  _363
REMARK  144  A    between atoms: _362  and  _365
REMARK  145  A    between atoms: _365  and  _366
REMARK  146  A    between atoms: _371  and  _373
REMARK  147  A    between atoms: _384  and  _387
REMARK  148  A    between atoms: _387  and  _388
REMARK  149  A    between atoms: _388  and  _389
REMARK  150  A    between atoms: _394  and  _397
REMARK  151  A    between atoms: _397  and  _398
REMARK  152  A    between atoms: _398  and  _399
REMARK  153  A    between atoms: _408  and  _409
REMARK  154  A    between atoms: _417  and  _419
REMARK  155  A    between atoms: _419  and  _420
REMARK  156  A    between atoms: _419  and  _422
REMARK  157  A    between atoms: _422  and  _423
REMARK  158  A    between atoms: _426  and  _428
REMARK  159  A    between atoms: _428  and  _429
REMARK  160  A    between atoms: _428  and  _431
REMARK  161  A    between atoms: _431  and  _432
REMARK  162  A    between atoms: _437  and  _438
REMARK  163  A    between atoms: _440  and  _442
REMARK  164  A    between atoms: _442  and  _443
REMARK  165  A    between atoms: _442  and  _445
REMARK  166  A    between atoms: _445  and  _446
REMARK  167  A    between atoms: _452  and  _454
REMARK  168  A    between atoms: _454  and  _455
REMARK  169  A    between atoms: _454  and  _457
REMARK  170  A    between atoms: _457  and  _458
REMARK  171  A    between atoms: _463  and  _464
REMARK  172  A    between atoms: _466  and  _468
REMARK  173  A    between atoms: _468  and  _469
REMARK  174  A    between atoms: _468  and  _471
REMARK  175  A    between atoms: _471  and  _472
REMARK  176  A    between atoms: _472  and  _473
REMARK  177  A    between atoms: _473  and  _474
REMARK  178  A    between atoms: _483  and  _485
REMARK  179  A    between atoms: _485  and  _486
REMARK  180  A    between atoms: _485  and  _488
REMARK  181  A    between atoms: _488  and  _489
REMARK  182  A    between atoms: _489  and  _490
REMARK  183  A    between atoms: _493  and  _495
REMARK  184  A    between atoms: _495  and  _496
REMARK  185  A    between atoms: _498  and  _500
REMARK  186  A    between atoms: _500  and  _501
REMARK  187  A    between atoms: _500  and  _503
REMARK  188  A    between atoms: _503  and  _504
REMARK  189  A    between atoms: _510  and  _511
REMARK  190  A    between atoms: _516  and  _518
REMARK  191  A    between atoms: _518  and  _519
REMARK  192  A    between atoms: _521  and  _523
REMARK  193  A    between atoms: _523  and  _524
REMARK  194  A    between atoms: _523  and  _526
REMARK  195  A    between atoms: _526  and  _527
REMARK  196  A    between atoms: _533  and  _535
REMARK  197  A    between atoms: _535  and  _536
REMARK  198  A    between atoms: _535  and  _538
REMARK  199  A    between atoms: _538  and  _539
REMARK  200  A    between atoms: _544  and  _546
REMARK  201  A    between atoms: _546  and  _547
REMARK  202  A    between atoms: _546  and  _549
REMARK  203  A    between atoms: _549  and  _550
REMARK  204  A    between atoms: _550  and  _551
REMARK  205  A    between atoms: _551  and  _552
REMARK  206  A    between atoms: _552  and  ZN_793
REMARK  207  A    between atoms: _554  and  _556
REMARK  208  A    between atoms: _556  and  _557
REMARK  209  A    between atoms: _560  and  _562
REMARK  210  A    between atoms: _562  and  _563
REMARK  211  A    between atoms: _562  and  _565
REMARK  212  A    between atoms: _565  and  _566
REMARK  213  A    between atoms: _569  and  _571
REMARK  214  A    between atoms: _571  and  _572
REMARK  215  A    between atoms: _575  and  _577
REMARK  216  A    between atoms: _577  and  _578
REMARK  217  A    between atoms: _577  and  _580
REMARK  218  A    between atoms: _580  and  _581
REMARK  219  A    between atoms: _584  and  _586
REMARK  220  A    between atoms: _586  and  _587
REMARK  221  A    between atoms: _586  and  _589
REMARK  222  A    between atoms: _589  and  _590
REMARK  223  A    between atoms: _590  and  _591
REMARK  224  A    between atoms: _591  and  _592
REMARK  225  A    between atoms: _592  and  _593
REMARK  226  A    between atoms: _597  and  _599
REMARK  227  A    between atoms: _599  and  _600
REMARK  228  A    between atoms: _599  and  _602
REMARK  229  A    between atoms: _602  and  _603
REMARK  230  A    between atoms: _609  and  _611
REMARK  231  A    between atoms: _611  and  _612
REMARK  232  A    between atoms: _611  and  _614
REMARK  233  A    between atoms: _614  and  _615
REMARK  234  A    between atoms: _621  and  _623
REMARK  235  A    between atoms: _623  and  _624
REMARK  236  A    between atoms: _623  and  _626
REMARK  237  A    between atoms: _626  and  _627
REMARK  238  A    between atoms: _629  and  _631
REMARK  239  A    between atoms: _631  and  _632
REMARK  240  A    between atoms: _631  and  _634
REMARK  241  A    between atoms: _637  and  _639
REMARK  242  A    between atoms: _639  and  _640
REMARK  243  A    between atoms: _639  and  _642
REMARK  244  A    between atoms: _642  and  _643
REMARK  245  A    between atoms: _643  and  _644
REMARK  246  A    between atoms: _644  and  _645
REMARK  247  A    between atoms: _645  and  _646
REMARK  248  A    between atoms: _650  and  _652
REMARK  249  A    between atoms: _652  and  _653
REMARK  250  A    between atoms: _652  and  _655
REMARK  251  A    between atoms: _655  and  _656
REMARK  252  A    between atoms: _662  and  _664
REMARK  253  A    between atoms: _664  and  _665
REMARK  254  A    between atoms: _664  and  _667
REMARK  255  A    between atoms: _667  and  _668
REMARK  256  A    between atoms: _673  and  _675
REMARK  257  A    between atoms: _675  and  _676
REMARK  258  A    between atoms: _675  and  _678
REMARK  259  A    between atoms: _678  and  _679
REMARK  260  A    between atoms: _681  and  _683
REMARK  261  A    between atoms: _683  and  _684
REMARK  262  A    between atoms: _683  and  _686
REMARK  263  A    between atoms: _686  and  _687
REMARK  264  A    between atoms: _689  and  _691
REMARK  265  A    between atoms: _691  and  _692
REMARK  266  A    between atoms: _691  and  _694
REMARK  267  A    between atoms: _698  and  _699
REMARK  268  A    between atoms: _704  and  _706
REMARK  269  A    between atoms: _706  and  _707
REMARK  270  A    between atoms: _706  and  _709
REMARK  271  A    between atoms: _709  and  _710
REMARK  272  A    between atoms: _715  and  _716
REMARK  273  A    between atoms: _718  and  _720
REMARK  274  A    between atoms: _720  and  _721
REMARK  275  A    between atoms: _720  and  _723
REMARK  276  A    between atoms: _723  and  _724
REMARK  277  A    between atoms: _724  and  _725
REMARK  278  A    between atoms: _725  and  _726
REMARK  279  A    between atoms: _735  and  _737
REMARK  280  A    between atoms: _737  and  _738
REMARK  281  A    between atoms: _737  and  _740
REMARK  282  A    between atoms: _740  and  _741
REMARK  283  A    between atoms: _746  and  _747
REMARK  284  A    between atoms: _749  and  _751
REMARK  285  A    between atoms: _751  and  _752
REMARK  286  A    between atoms: _751  and  _754
REMARK  287  A    between atoms: _754  and  _755
REMARK  288  A    between atoms: _761  and  _763
REMARK  289  A    between atoms: _763  and  _764
REMARK  290  A    between atoms: _763  and  _766
REMARK  291  A    between atoms: _766  and  _767
REMARK  292  A    between atoms: _769  and  _771
REMARK  293  A    between atoms: _771  and  _772
REMARK  294  A    between atoms: _771  and  _774
REMARK  295  A    between atoms: _774  and  _775
REMARK  296  A    between atoms: _781  and  _783
REMARK  297  A    between atoms: _783  and  _784
REMARK  298  A    between atoms: _783  and  _786
REMARK  299  A    between atoms: _786  and  _787
REMARK  300  A    between atoms: _787  and  _788
REMARK                            x       y       z     vdW  Elec       q    Type
REMARK                         _______ _______ _______ _____ _____    ______ ____
ROOT
ATOM      1  C   TYR A   1      21.986   2.967 -13.741  0.00  0.00    +0.239 C 
ATOM      2  N   PHE A   2      21.568   1.916 -13.012  0.00  0.00    -0.298 N 
ATOM      3  H   PHE A   2      21.473   0.986 -13.468  0.00  0.00    +0.150 HD
ATOM      4  O   TYR A   1      22.137   4.109 -13.271  0.00  0.00    -0.274 OA
ENDROOT
BRANCH   1   5
ATOM      5  CA  TYR A   1      22.317   2.702 -15.213  0.00  0.00    +0.149 C 
BRANCH   5   6
ATOM      6  N   TYR A   1      23.114   1.485 -15.325  0.00  0.00    -0.238 NA
ATOM      7  H   TYR A   1      22.753   0.689 -15.889  0.00  0.00    +0.142 HD
ENDBRANCH   5   6
BRANCH   5   8
ATOM      8  CB  TYR A   1      21.032   2.593 -16.052  0.00  0.00    +0.053 C 
BRANCH   8   9
ATOM      9  CG  TYR A   1      20.697   3.822 -16.882  0.00  0.00    -0.020 A 
ATOM     10  CD2 TYR A   1      20.715   5.104 -16.327  0.00  0.00    -0.001 A 
ATOM     11  CE2 TYR A   1      20.395   6.227 -17.092  0.00  0.00    +0.036 A 
ATOM     12  CZ  TYR A   1      20.053   6.062 -18.435  0.00  0.00    +0.134 A 
ATOM     13  CE1 TYR A   1      20.038   4.799 -19.004  0.00  0.00    +0.036 A 
ATOM     14  CD1 TYR A   1      20.351   3.694 -18.232  0.00  0.00    -0.001 A 
BRANCH  12  15
ATOM     15  OH  TYR A   1      19.734   7.151 -19.226  0.00  0.00    -0.506 OA
ATOM     16  HH  TYR A   1      19.788   7.978 -18.684  0.00  0.00    +0.292 HD
ENDBRANCH  12  15
ENDBRANCH   8   9
ENDBRANCH   5   8
ENDBRANCH   1   5
BRANCH   2  17
ATOM     17  CA  PHE A   2      21.241   2.054 -11.580  0.00  0.00    +0.141 C 
BRANCH  17  18
ATOM     18  C   PHE A   2      22.425   2.635 -10.825  0.00  0.00    +0.227 C 
ATOM     19  O   PHE A   2      22.249   3.499  -9.983  0.00  0.00    -0.286 OA
ENDBRANCH  17  18
BRANCH  17  20
ATOM     20  CB  PHE A   2      20.902   0.717 -10.885  0.00  0.00    +0.054 C 
BRANCH  20  21
ATOM     21  CG  PHE A   2      19.719  -0.031 -11.460  0.00  0.00    -0.020 A 
ATOM     22  CD2 PHE A   2      19.657  -1.419 -11.336  0.00  0.00    -0.004 A 
ATOM     23  CE2 PHE A   2      18.577  -2.134 -11.828  0.00  0.00    -0.000 A 
ATOM     24  CZ  PHE A   2      17.528  -1.461 -12.430  0.00  0.00    -0.000 A 
ATOM     25  CE1 PHE A   2      17.565  -0.077 -12.547  0.00  0.00    -0.000 A 
ATOM     26  CD1 PHE A   2      18.655   0.633 -12.050  0.00  0.00    -0.004 A 
ENDBRANCH  20  21
ENDBRANCH  17  20
ENDBRANCH   2  17
TORSDOF 9
REMARK  Name = ../refined-set-2016/4ca5/4ca5_pocket.pdb
REMARK  300 active torsions:
REMARK  status: ('A' for Active; 'I' for Inactive)
REMARK    1  A    between atoms: _1  and  _3
REMARK    2  A    between atoms: _3  and  _4
REMARK    3  A    between atoms: _3  and  _6
REMARK    4  A    between atoms: _6  and  _7
REMARK    5  A    between atoms: _12  and  _14
REMARK    6  A    between atoms: _14  and  _15
REMARK    7  A    between atoms: _14  and  _17
REMARK    8  A    between atoms: _17  and  _18
REMARK    9  A    between atoms: _23  and  _25
REMARK   10  A    between atoms: _25  and  _26
REMARK   11  A    between atoms: _25  and  _28
REMARK   12  A    between atoms: _28  and  _29
REMARK   13  A    between atoms: _29  and  _30
REMARK   14  A    between atoms: _33  and  _35
REMARK   15  A    between atoms: _35  and  _36
REMARK   16  A    between atoms: _35  and  _38
REMARK   17  A    between atoms: _38  and  _39
REMARK   18  A    between atoms: _44  and  _45
REMARK   19  A    between atoms: _47  and  _49
REMARK   20  A    between atoms: _49  and  _50
REMARK   21  A    between atoms: _49  and  _52
REMARK   22  A    between atoms: _52  and  _53
REMARK   23  A    between atoms: _53  and  _54
REMARK   24  A    between atoms: _57  and  _59
REMARK   25  A    between atoms: _59  and  _60
REMARK   26  A    between atoms: _59  and  _62
REMARK   27  A    between atoms: _62  and  _63
REMARK   28  A    between atoms: _66  and  _68
REMARK   29  A    between atoms: _68  and  _69
REMARK   30  A    between atoms: _71  and  _73
REMARK   31  A    between atoms: _73  and  _74
REMARK   32  A    between atoms: _73  and  _76
REMARK   33  A    between atoms: _76  and  _77
REMARK   34  A    between atoms: _82  and  _84
REMARK   35  A    between atoms: _84  and  _85
REMARK   36  A    between atoms: _84  and  _87
REMARK   37  A    between atoms: _87  and  _88
REMARK   38  A    between atoms: _88  and  _89
REMARK   39  A    between atoms: _91  and  _93
REMARK   40  A    between atoms: _93  and  _94
REMARK   41  A    between atoms: _93  and  _96
REMARK   42  A    between atoms: _96  and  _97
REMARK   43  A    between atoms: _107  and  _109
REMARK   44  A    between atoms: _109  and  _110
REMARK   45  A    between atoms: _109  and  _112
REMARK   46  A    between atoms: _112  and  _113
REMARK   47  A    between atoms: _113  and  _114
REMARK   48  A    between atoms: _119  and  _121
REMARK   49  A    between atoms: _121  and  _122
REMARK   50  A    between atoms: _121  and  _124
REMARK   51  A    between atoms: _124  and  _125
REMARK   52  A    between atoms: _128  and  _130
REMARK   53  A    between atoms: _130  and  _131
REMARK   54  A    between atoms: _130  and  _133
REMARK   55  A    between atoms: _133  and  _134
REMARK   56  A    between atoms: _144  and  _146
REMARK   57  A    between atoms: _146  and  _147
REMARK   58  A    between atoms: _146  and  _149
REMARK   59  A    between atoms: _149  and  _150
REMARK   60  A    between atoms: _152  and  _154
REMARK   61  A    between atoms: _154  and  _155
REMARK   62  A    between atoms: _154  and  _157
REMARK   63  A    between atoms: _157  and  _158
REMARK   64  A    between atoms: _163  and  _165
REMARK   65  A    between atoms: _165  and  _166
REMARK   66  A    between atoms: _165  and  _168
REMARK   67  A    between atoms: _171  and  _173
REMARK   68  A    between atoms: _173  and  _174
REMARK   69  A    between atoms: _173  and  _176
REMARK   70  A    between atoms: _178  and  _180
REMARK   71  A    between atoms: _180  and  _181
REMARK   72  A    between atoms: _180  and  _183
REMARK   73  A    between atoms: _183  and  _184
REMARK   74  A    between atoms: _189  and  _191
REMARK   75  A    between atoms: _191  and  _192
REMARK   76  A    between atoms: _195  and  _197
REMARK   77  A    between atoms: _197  and  _198
REMARK   78  A    between atoms: _197  and  _200
REMARK   79  A    between atoms: _200  and  _201
REMARK   80  A    between atoms: _203  and  _205
REMARK   81  A    between atoms: _205  and  _206
REMARK   82  A    between atoms: _209  and  _211
REMARK   83  A    between atoms: _211  and  _212
REMARK   84  A    between atoms: _211  and  _214
REMARK   85  A    between atoms: _214  and  _215
REMARK   86  A    between atoms: _225  and  _227
REMARK   87  A    between atoms: _227  and  _228
REMARK   88  A    between atoms: _227  and  _230
REMARK   89  A    between atoms: _230  and  _231
REMARK   90  A    between atoms: _234  and  _236
REMARK   91  A    between atoms: _236  and  _237
REMARK   92  A    between atoms: _236  and  _239
REMARK   93  A    between atoms: _239  and  _240
REMARK   94  A    between atoms: _245  and  _246
REMARK   95  A    between atoms: _248  and  _250
REMARK   96  A    between atoms: _250  and  _251
REMARK   97  A    between atoms: _250  and  _253
REMARK   98  A    between atoms: _253  and  _254
REMARK   99  A    between atoms: _254  and  _255
REMARK  100  A    between atoms: _255  and  _256
REMARK  101  A    between atoms: _265  and  _267
REMARK  102  A    between atoms: _267  and  _268
REMARK  103  A    between atoms: _267  and  _270
REMARK  104  A    between atoms: _270  and  _271
REMARK  105  A    between atoms: _274  and  _276
REMARK  106  A    between atoms: _276  and  _277
REMARK  107  A    between atoms: _276  and  _279
REMARK  108  A    between atoms: _279  and  _280
REMARK  109  A    between atoms: _280  and  _281
REMARK  110  A    between atoms: _281  and  _282
REMARK  111  A    between atoms: _282  and  _283
REMARK  112  A    between atoms: _287  and  _289
REMARK  113  A    between atoms: _289  and  _290
REMARK  114  A    between atoms: _289  and  _292
REMARK  115  A    between atoms: _292  and  _293
REMARK  116  A    between atoms: _293  and  _294
REMARK  117  A    between atoms: _299  and  _301
REMARK  118  A    between atoms: _301  and  _302
REMARK  119  A    between atoms: _301  and  _304
REMARK  120  A    between atoms: _304  and  _305
REMARK  121  A    between atoms: _310  and  _312
REMARK  122  A    between atoms: _312  and  _313
REMARK  123  A    between atoms: _312  and  _315
REMARK  124  A    between atoms: _315  and  _316
REMARK  125  A    between atoms: _319  and  _321
REMARK  126  A    between atoms: _321  and  _322
REMARK  127  A    between atoms: _321  and  _324
REMARK  128  A    between atoms: _324  and  _325
REMARK  129  A    between atoms: _325  and  _326
REMARK  130  A    between atoms: _329  and  _331
REMARK  131  A    between atoms: _331  and  _332
REMARK  132  A    between atoms: _331  and  _334
REMARK  133  A    between atoms: _334  and  _335
REMARK  134  A    between atoms: _338  and  _340
REMARK  135  A    between atoms: _340  and  _341
REMARK  136  A    between atoms: _340  and  _343
REMARK  137  A    between atoms: _346  and  _348
REMARK  138  A    between atoms: _348  and  _349
REMARK  139  A    between atoms: _348  and  _351
REMARK  140  A    between atoms: _354  and  _356
REMARK  141  A    between atoms: _356  and  _357
REMARK  142  A    between atoms: _360  and  _362
REMARK  143  A    between atoms: _362  and  _363
REMARK  144  A    between atoms: _362  and  _365
REMARK  145  A    between atoms: _365  and  _366
REMARK  146  A    between atoms: _371  and  _373
REMARK  147  A    between atoms: _384  and  _387
REMARK  148  A    between atoms: _387  and  _388
REMARK  149  A    between atoms: _388  and  _389
REMARK  150  A    between atoms: _394  and  _397
REMARK  151  A    between atoms: _397  and  _398
REMARK  152  A    between atoms: _398  and  _399
REMARK  153  A    between atoms: _408  and  _409
REMARK  154  A    between atoms: _417  and  _419
REMARK  155  A    between atoms: _419  and  _420
REMARK  156  A    between atoms: _419  and  _422
REMARK  157  A    between atoms: _422  and  _423
REMARK  158  A    between atoms: _426  and  _428
REMARK  159  A    between atoms: _428  and  _429
REMARK  160  A    between atoms: _428  and  _431
REMARK  161  A    between atoms: _431  and  _432
REMARK  162  A    between atoms: _437  and  _438
REMARK  163  A    between atoms: _440  and  _442
REMARK  164  A    between atoms: _442  and  _443
REMARK  165  A    between atoms: _442  and  _445
REMARK  166  A    between atoms: _445  and  _446
REMARK  167  A    between atoms: _452  and  _454
REMARK  168  A    between atoms: _454  and  _455
REMARK  169  A    between atoms: _454  and  _457
REMARK  170  A    between atoms: _457  and  _458
REMARK  171  A    between atoms: _463  and  _464
REMARK  172  A    between atoms: _466  and  _468
REMARK  173  A    between atoms: _468  and  _469
REMARK  174  A    between atoms: _468  and  _471
REMARK  175  A    between atoms: _471  and  _472
REMARK  176  A    between atoms: _472  and  _473
REMARK  177  A    between atoms: _473  and  _474
REMARK  178  A    between atoms: _483  and  _485
REMARK  179  A    between atoms: _485  and  _486
REMARK  180  A    between atoms: _485  and  _488
REMARK  181  A    between atoms: _488  and  _489
REMARK  182  A    between atoms: _489  and  _490
REMARK  183  A    between atoms: _493  and  _495
REMARK  184  A    between atoms: _495  and  _496
REMARK  185  A    between atoms: _498  and  _500
REMARK  186  A    between atoms: _500  and  _501
REMARK  187  A    between atoms: _500  and  _503
REMARK  188  A    between atoms: _503  and  _504
REMARK  189  A    between atoms: _510  and  _511
REMARK  190  A    between atoms: _516  and  _518
REMARK  191  A    between atoms: _518  and  _519
REMARK  192  A    between atoms: _521  and  _523
REMARK  193  A    between atoms: _523  and  _524
REMARK  194  A    between atoms: _523  and  _526
REMARK  195  A    between atoms: _526  and  _527
REMARK  196  A    between atoms: _533  and  _535
REMARK  197  A    between atoms: _535  and  _536
REMARK  198  A    between atoms: _535  and  _538
REMARK  199  A    between atoms: _538  and  _539
REMARK  200  A    between atoms: _544  and  _546
REMARK  201  A    between atoms: _546  and  _547
REMARK  202  A    between atoms: _546  and  _549
REMARK  203  A    between atoms: _549  and  _550
REMARK  204  A    between atoms: _550  and  _551
REMARK  205  A    between atoms: _551  and  _552
REMARK  206  A    between atoms: _552  and  ZN_793
REMARK  207  A    between atoms: _554  and  _556
REMARK  208  A    between atoms: _556  and  _557
REMARK  209  A    between atoms: _560  and  _562
REMARK  210  A    between atoms: _562  and  _563
REMARK  211  A    between atoms: _562  and  _565
REMARK  212  A    between atoms: _565  and  _566
REMARK  213  A    between atoms: _569  and  _571
REMARK  214  A    between atoms: _571  and  _572
REMARK  215  A    between atoms: _575  and  _577
REMARK  216  A    between atoms: _577  and  _578
REMARK  217  A    between atoms: _577  and  _580
REMARK  218  A    between atoms: _580  and  _581
REMARK  219  A    between atoms: _584  and  _586
REMARK  220  A    between atoms: _586  and  _587
REMARK  221  A    between atoms: _586  and  _589
REMARK  222  A    between atoms: _589  and  _590
REMARK  223  A    between atoms: _590  and  _591
REMARK  224  A    between atoms: _591  and  _592
REMARK  225  A    between atoms: _592  and  _593
REMARK  226  A    between atoms: _597  and  _599
REMARK  227  A    between atoms: _599  and  _600
REMARK  228  A    between atoms: _599  and  _602
REMARK  229  A    between atoms: _602  and  _603
REMARK  230  A    between atoms: _609  and  _611
REMARK  231  A    between atoms: _611  and  _612
REMARK  232  A    between atoms: _611  and  _614
REMARK  233  A    between atoms: _614  and  _615
REMARK  234  A    between atoms: _621  and  _623
REMARK  235  A    between atoms: _623  and  _624
REMARK  236  A    between atoms: _623  and  _626
REMARK  237  A    between atoms: _626  and  _627
REMARK  238  A    between atoms: _629  and  _631
REMARK  239  A    between atoms: _631  and  _632
REMARK  240  A    between atoms: _631  and  _634
REMARK  241  A    between atoms: _637  and  _639
REMARK  242  A    between atoms: _639  and  _640
REMARK  243  A    between atoms: _639  and  _642
REMARK  244  A    between atoms: _642  and  _643
REMARK  245  A    between atoms: _643  and  _644
REMARK  246  A    between atoms: _644  and  _645
REMARK  247  A    between atoms: _645  and  _646
REMARK  248  A    between atoms: _650  and  _652
REMARK  249  A    between atoms: _652  and  _653
REMARK  250  A    between atoms: _652  and  _655
REMARK  251  A    between atoms: _655  and  _656
REMARK  252  A    between atoms: _662  and  _664
REMARK  253  A    between atoms: _664  and  _665
REMARK  254  A    between atoms: _664  and  _667
REMARK  255  A    between atoms: _667  and  _668
REMARK  256  A    between atoms: _673  and  _675
REMARK  257  A    between atoms: _675  and  _676
REMARK  258  A    between atoms: _675  and  _678
REMARK  259  A    between atoms: _678  and  _679
REMARK  260  A    between atoms: _681  and  _683
REMARK  261  A    between atoms: _683  and  _684
REMARK  262  A    between atoms: _683  and  _686
REMARK  263  A    between atoms: _686  and  _687
REMARK  264  A    between atoms: _689  and  _691
REMARK  265  A    between atoms: _691  and  _692
REMARK  266  A    between atoms: _691  and  _694
REMARK  267  A    between atoms: _698  and  _699
REMARK  268  A    between atoms: _704  and  _706
REMARK  269  A    between atoms: _706  and  _707
REMARK  270  A    between atoms: _706  and  _709
REMARK  271  A    between atoms: _709  and  _710
REMARK  272  A    between atoms: _715  and  _716
REMARK  273  A    between atoms: _718  and  _720
REMARK  274  A    between atoms: _720  and  _721
REMARK  275  A    between atoms: _720  and  _723
REMARK  276  A    between atoms: _723  and  _724
REMARK  277  A    between atoms: _724  and  _725
REMARK  278  A    between atoms: _725  and  _726
REMARK  279  A    between atoms: _735  and  _737
REMARK  280  A    between atoms: _737  and  _738
REMARK  281  A    between atoms: _737  and  _740
REMARK  282  A    between atoms: _740  and  _741
REMARK  283  A    between atoms: _746  and  _747
REMARK  284  A    between atoms: _749  and  _751
REMARK  285  A    between atoms: _751  and  _752
REMARK  286  A    between atoms: _751  and  _754
REMARK  287  A    between atoms: _754  and  _755
REMARK  288  A    between atoms: _761  and  _763
REMARK  289  A    between atoms: _763  and  _764
REMARK  290  A    between atoms: _763  and  _766
REMARK  291  A    between atoms: _766  and  _767
REMARK  292  A    between atoms: _769  and  _771
REMARK  293  A    between atoms: _771  and  _772
REMARK  294  A    between atoms: _771  and  _774
REMARK  295  A    between atoms: _774  and  _775
REMARK  296  A    between atoms: _781  and  _783
REMARK  297  A    between atoms: _783  and  _784
REMARK  298  A    between atoms: _783  and  _786
REMARK  299  A    between atoms: _786  and  _787
REMARK  300  A    between atoms: _787  and  _788
REMARK                            x       y       z     vdW  Elec       q    Type
REMARK                         _______ _______ _______ _____ _____    ______ ____
ROOT
ATOM      1  CG  TYR A   1      20.128   6.610 -12.213  0.00  0.00    -0.020 A 
ATOM      2  CD2 TYR A   1      19.727   5.790 -11.156  0.00  0.00    -0.001 A 
ATOM      3  CE2 TYR A   1      18.794   4.771 -11.346  0.00  0.00    +0.036 A 
ATOM      4  CZ  TYR A   1      18.225   4.584 -12.600  0.00  0.00    +0.134 A 
ATOM      5  CE1 TYR A   1      18.595   5.396 -13.661  0.00  0.00    +0.036 A 
ATOM      6  CD1 TYR A   1      19.524   6.408 -13.458  0.00  0.00    -0.001 A 
ENDROOT
BRANCH   4   7
ATOM      7  OH  TYR A   1      17.283   3.595 -12.793  0.00  0.00    -0.506 OA
ATOM      8  HH  TYR A   1      17.135   3.111 -11.942  0.00  0.00    +0.292 HD
ENDBRANCH   4   7
BRANCH   1   9
ATOM      9  CB  TYR A   1      21.127   7.754 -12.018  0.00  0.00    +0.051 C 
BRANCH   9  10
ATOM     10  CA  TYR A   1      22.380   7.525 -11.136  0.00  0.00    +0.137 C 
BRANCH  10  11
ATOM     11  N   TYR A   1      23.261   6.490 -11.669  0.00  0.00    -0.239 NA
ATOM     12  H   TYR A   1      22.883   5.547 -11.893  0.00  0.00    +0.142 HD
ENDBRANCH  10  11
BRANCH  10  13
ATOM     13  C   TYR A   1      22.034   7.381  -9.650  0.00  0.00    +0.224 C 
ATOM     14  O   TYR A   1      21.148   8.063  -9.154  0.00  0.00    -0.287 OA
ENDBRANCH  10  13
ENDBRANCH   9  10
ENDBRANCH   1   9
TORSDOF 5
REMARK  Name = ../refined-set-2016/4ca5/4ca5_pocket.pdb
REMARK  300 active torsions:
REMARK  status: ('A' for Active; 'I' for Inactive)
REMARK    1  A    between atoms: _1  and  _3
REMARK    2  A    between atoms: _3  and  _4
REMARK    3  A    between atoms: _3  and  _6
REMARK    4  A    between atoms: _6  and  _7
REMARK    5  A    between atoms: _12  and  _14
REMARK    6  A    between atoms: _14  and  _15
REMARK    7  A    between atoms: _14  and  _17
REMARK    8  A    between atoms: _17  and  _18
REMARK    9  A    between atoms: _23  and  _25
REMARK   10  A    between atoms: _25  and  _26
REMARK   11  A    between atoms: _25  and  _28
REMARK   12  A    between atoms: _28  and  _29
REMARK   13  A    between atoms: _29  and  _30
REMARK   14  A    between atoms: _33  and  _35
REMARK   15  A    between atoms: _35  and  _36
REMARK   16  A    between atoms: _35  and  _38
REMARK   17  A    between atoms: _38  and  _39
REMARK   18  A    between atoms: _44  and  _45
REMARK   19  A    between atoms: _47  and  _49
REMARK   20  A    between atoms: _49  and  _50
REMARK   21  A    between atoms: _49  and  _52
REMARK   22  A    between atoms: _52  and  _53
REMARK   23  A    between atoms: _53  and  _54
REMARK   24  A    between atoms: _57  and  _59
REMARK   25  A    between atoms: _59  and  _60
REMARK   26  A    between atoms: _59  and  _62
REMARK   27  A    between atoms: _62  and  _63
REMARK   28  A    between atoms: _66  and  _68
REMARK   29  A    between atoms: _68  and  _69
REMARK   30  A    between atoms: _71  and  _73
REMARK   31  A    between atoms: _73  and  _74
REMARK   32  A    between atoms: _73  and  _76
REMARK   33  A    between atoms: _76  and  _77
REMARK   34  A    between atoms: _82  and  _84
REMARK   35  A    between atoms: _84  and  _85
REMARK   36  A    between atoms: _84  and  _87
REMARK   37  A    between atoms: _87  and  _88
REMARK   38  A    between atoms: _88  and  _89
REMARK   39  A    between atoms: _91  and  _93
REMARK   40  A    between atoms: _93  and  _94
REMARK   41  A    between atoms: _93  and  _96
REMARK   42  A    between atoms: _96  and  _97
REMARK   43  A    between atoms: _107  and  _109
REMARK   44  A    between atoms: _109  and  _110
REMARK   45  A    between atoms: _109  and  _112
REMARK   46  A    between atoms: _112  and  _113
REMARK   47  A    between atoms: _113  and  _114
REMARK   48  A    between atoms: _119  and  _121
REMARK   49  A    between atoms: _121  and  _122
REMARK   50  A    between atoms: _121  and  _124
REMARK   51  A    between atoms: _124  and  _125
REMARK   52  A    between atoms: _128  and  _130
REMARK   53  A    between atoms: _130  and  _131
REMARK   54  A    between atoms: _130  and  _133
REMARK   55  A    between atoms: _133  and  _134
REMARK   56  A    between atoms: _144  and  _146
REMARK   57  A    between atoms: _146  and  _147
REMARK   58  A    between atoms: _146  and  _149
REMARK   59  A    between atoms: _149  and  _150
REMARK   60  A    between atoms: _152  and  _154
REMARK   61  A    between atoms: _154  and  _155
REMARK   62  A    between atoms: _154  and  _157
REMARK   63  A    between atoms: _157  and  _158
REMARK   64  A    between atoms: _163  and  _165
REMARK   65  A    between atoms: _165  and  _166
REMARK   66  A    between atoms: _165  and  _168
REMARK   67  A    between atoms: _171  and  _173
REMARK   68  A    between atoms: _173  and  _174
REMARK   69  A    between atoms: _173  and  _176
REMARK   70  A    between atoms: _178  and  _180
REMARK   71  A    between atoms: _180  and  _181
REMARK   72  A    between atoms: _180  and  _183
REMARK   73  A    between atoms: _183  and  _184
REMARK   74  A    between atoms: _189  and  _191
REMARK   75  A    between atoms: _191  and  _192
REMARK   76  A    between atoms: _195  and  _197
REMARK   77  A    between atoms: _197  and  _198
REMARK   78  A    between atoms: _197  and  _200
REMARK   79  A    between atoms: _200  and  _201
REMARK   80  A    between atoms: _203  and  _205
REMARK   81  A    between atoms: _205  and  _206
REMARK   82  A    between atoms: _209  and  _211
REMARK   83  A    between atoms: _211  and  _212
REMARK   84  A    between atoms: _211  and  _214
REMARK   85  A    between atoms: _214  and  _215
REMARK   86  A    between atoms: _225  and  _227
REMARK   87  A    between atoms: _227  and  _228
REMARK   88  A    between atoms: _227  and  _230
REMARK   89  A    between atoms: _230  and  _231
REMARK   90  A    between atoms: _234  and  _236
REMARK   91  A    between atoms: _236  and  _237
REMARK   92  A    between atoms: _236  and  _239
REMARK   93  A    between atoms: _239  and  _240
REMARK   94  A    between atoms: _245  and  _246
REMARK   95  A    between atoms: _248  and  _250
REMARK   96  A    between atoms: _250  and  _251
REMARK   97  A    between atoms: _250  and  _253
REMARK   98  A    between atoms: _253  and  _254
REMARK   99  A    between atoms: _254  and  _255
REMARK  100  A    between atoms: _255  and  _256
REMARK  101  A    between atoms: _265  and  _267
REMARK  102  A    between atoms: _267  and  _268
REMARK  103  A    between atoms: _267  and  _270
REMARK  104  A    between atoms: _270  and  _271
REMARK  105  A    between atoms: _274  and  _276
REMARK  106  A    between atoms: _276  and  _277
REMARK  107  A    between atoms: _276  and  _279
REMARK  108  A    between atoms: _279  and  _280
REMARK  109  A    between atoms: _280  and  _281
REMARK  110  A    between atoms: _281  and  _282
REMARK  111  A    between atoms: _282  and  _283
REMARK  112  A    between atoms: _287  and  _289
REMARK  113  A    between atoms: _289  and  _290
REMARK  114  A    between atoms: _289  and  _292
REMARK  115  A    between atoms: _292  and  _293
REMARK  116  A    between atoms: _293  and  _294
REMARK  117  A    between atoms: _299  and  _301
REMARK  118  A    between atoms: _301  and  _302
REMARK  119  A    between atoms: _301  and  _304
REMARK  120  A    between atoms: _304  and  _305
REMARK  121  A    between atoms: _310  and  _312
REMARK  122  A    between atoms: _312  and  _313
REMARK  123  A    between atoms: _312  and  _315
REMARK  124  A    between atoms: _315  and  _316
REMARK  125  A    between atoms: _319  and  _321
REMARK  126  A    between atoms: _321  and  _322
REMARK  127  A    between atoms: _321  and  _324
REMARK  128  A    between atoms: _324  and  _325
REMARK  129  A    between atoms: _325  and  _326
REMARK  130  A    between atoms: _329  and  _331
REMARK  131  A    between atoms: _331  and  _332
REMARK  132  A    between atoms: _331  and  _334
REMARK  133  A    between atoms: _334  and  _335
REMARK  134  A    between atoms: _338  and  _340
REMARK  135  A    between atoms: _340  and  _341
REMARK  136  A    between atoms: _340  and  _343
REMARK  137  A    between atoms: _346  and  _348
REMARK  138  A    between atoms: _348  and  _349
REMARK  139  A    between atoms: _348  and  _351
REMARK  140  A    between atoms: _354  and  _356
REMARK  141  A    between atoms: _356  and  _357
REMARK  142  A    between atoms: _360  and  _362
REMARK  143  A    between atoms: _362  and  _363
REMARK  144  A    between atoms: _362  and  _365
REMARK  145  A    between atoms: _365  and  _366
REMARK  146  A    between atoms: _371  and  _373
REMARK  147  A    between atoms: _384  and  _387
REMARK  148  A    between atoms: _387  and  _388
REMARK  149  A    between atoms: _388  and  _389
REMARK  150  A    between atoms: _394  and  _397
REMARK  151  A    between atoms: _397  and  _398
REMARK  152  A    between atoms: _398  and  _399
REMARK  153  A    between atoms: _408  and  _409
REMARK  154  A    between atoms: _417  and  _419
REMARK  155  A    between atoms: _419  and  _420
REMARK  156  A    between atoms: _419  and  _422
REMARK  157  A    between atoms: _422  and  _423
REMARK  158  A    between atoms: _426  and  _428
REMARK  159  A    between atoms: _428  and  _429
REMARK  160  A    between atoms: _428  and  _431
REMARK  161  A    between atoms: _431  and  _432
REMARK  162  A    between atoms: _437  and  _438
REMARK  163  A    between atoms: _440  and  _442
REMARK  164  A    between atoms: _442  and  _443
REMARK  165  A    between atoms: _442  and  _445
REMARK  166  A    between atoms: _445  and  _446
REMARK  167  A    between atoms: _452  and  _454
REMARK  168  A    between atoms: _454  and  _455
REMARK  169  A    between atoms: _454  and  _457
REMARK  170  A    between atoms: _457  and  _458
REMARK  171  A    between atoms: _463  and  _464
REMARK  172  A    between atoms: _466  and  _468
REMARK  173  A    between atoms: _468  and  _469
REMARK  174  A    between atoms: _468  and  _471
REMARK  175  A    between atoms: _471  and  _472
REMARK  176  A    between atoms: _472  and  _473
REMARK  177  A    between atoms: _473  and  _474
REMARK  178  A    between atoms: _483  and  _485
REMARK  179  A    between atoms: _485  and  _486
REMARK  180  A    between atoms: _485  and  _488
REMARK  181  A    between atoms: _488  and  _489
REMARK  182  A    between atoms: _489  and  _490
REMARK  183  A    between atoms: _493  and  _495
REMARK  184  A    between atoms: _495  and  _496
REMARK  185  A    between atoms: _498  and  _500
REMARK  186  A    between atoms: _500  and  _501
REMARK  187  A    between atoms: _500  and  _503
REMARK  188  A    between atoms: _503  and  _504
REMARK  189  A    between atoms: _510  and  _511
REMARK  190  A    between atoms: _516  and  _518
REMARK  191  A    between atoms: _518  and  _519
REMARK  192  A    between atoms: _521  and  _523
REMARK  193  A    between atoms: _523  and  _524
REMARK  194  A    between atoms: _523  and  _526
REMARK  195  A    between atoms: _526  and  _527
REMARK  196  A    between atoms: _533  and  _535
REMARK  197  A    between atoms: _535  and  _536
REMARK  198  A    between atoms: _535  and  _538
REMARK  199  A    between atoms: _538  and  _539
REMARK  200  A    between atoms: _544  and  _546
REMARK  201  A    between atoms: _546  and  _547
REMARK  202  A    between atoms: _546  and  _549
REMARK  203  A    between atoms: _549  and  _550
REMARK  204  A    between atoms: _550  and  _551
REMARK  205  A    between atoms: _551  and  _552
REMARK  206  A    between atoms: _552  and  ZN_793
REMARK  207  A    between atoms: _554  and  _556
REMARK  208  A    between atoms: _556  and  _557
REMARK  209  A    between atoms: _560  and  _562
REMARK  210  A    between atoms: _562  and  _563
REMARK  211  A    between atoms: _562  and  _565
REMARK  212  A    between atoms: _565  and  _566
REMARK  213  A    between atoms: _569  and  _571
REMARK  214  A    between atoms: _571  and  _572
REMARK  215  A    between atoms: _575  and  _577
REMARK  216  A    between atoms: _577  and  _578
REMARK  217  A    between atoms: _577  and  _580
REMARK  218  A    between atoms: _580  and  _581
REMARK  219  A    between atoms: _584  and  _586
REMARK  220  A    between atoms: _586  and  _587
REMARK  221  A    between atoms: _586  and  _589
REMARK  222  A    between atoms: _589  and  _590
REMARK  223  A    between atoms: _590  and  _591
REMARK  224  A    between atoms: _591  and  _592
REMARK  225  A    between atoms: _592  and  _593
REMARK  226  A    between atoms: _597  and  _599
REMARK  227  A    between atoms: _599  and  _600
REMARK  228  A    between atoms: _599  and  _602
REMARK  229  A    between atoms: _602  and  _603
REMARK  230  A    between atoms: _609  and  _611
REMARK  231  A    between atoms: _611  and  _612
REMARK  232  A    between atoms: _611  and  _614
REMARK  233  A    between atoms: _614  and  _615
REMARK  234  A    between atoms: _621  and  _623
REMARK  235  A    between atoms: _623  and  _624
REMARK  236  A    between atoms: _623  and  _626
REMARK  237  A    between atoms: _626  and  _627
REMARK  238  A    between atoms: _629  and  _631
REMARK  239  A    between atoms: _631  and  _632
REMARK  240  A    between atoms: _631  and  _634
REMARK  241  A    between atoms: _637  and  _639
REMARK  242  A    between atoms: _639  and  _640
REMARK  243  A    between atoms: _639  and  _642
REMARK  244  A    between atoms: _642  and  _643
REMARK  245  A    between atoms: _643  and  _644
REMARK  246  A    between atoms: _644  and  _645
REMARK  247  A    between atoms: _645  and  _646
REMARK  248  A    between atoms: _650  and  _652
REMARK  249  A    between atoms: _652  and  _653
REMARK  250  A    between atoms: _652  and  _655
REMARK  251  A    between atoms: _655  and  _656
REMARK  252  A    between atoms: _662  and  _664
REMARK  253  A    between atoms: _664  and  _665
REMARK  254  A    between atoms: _664  and  _667
REMARK  255  A    between atoms: _667  and  _668
REMARK  256  A    between atoms: _673  and  _675
REMARK  257  A    between atoms: _675  and  _676
REMARK  258  A    between atoms: _675  and  _678
REMARK  259  A    between atoms: _678  and  _679
REMARK  260  A    between atoms: _681  and  _683
REMARK  261  A    between atoms: _683  and  _684
REMARK  262  A    between atoms: _683  and  _686
REMARK  263  A    between atoms: _686  and  _687
REMARK  264  A    between atoms: _689  and  _691
REMARK  265  A    between atoms: _691  and  _692
REMARK  266  A    between atoms: _691  and  _694
REMARK  267  A    between atoms: _698  and  _699
REMARK  268  A    between atoms: _704  and  _706
REMARK  269  A    between atoms: _706  and  _707
REMARK  270  A    between atoms: _706  and  _709
REMARK  271  A    between atoms: _709  and  _710
REMARK  272  A    between atoms: _715  and  _716
REMARK  273  A    between atoms: _718  and  _720
REMARK  274  A    between atoms: _720  and  _721
REMARK  275  A    between atoms: _720  and  _723
REMARK  276  A    between atoms: _723  and  _724
REMARK  277  A    between atoms: _724  and  _725
REMARK  278  A    between atoms: _725  and  _726
REMARK  279  A    between atoms: _735  and  _737
REMARK  280  A    between atoms: _737  and  _738
REMARK  281  A    between atoms: _737  and  _740
REMARK  282  A    between atoms: _740  and  _741
REMARK  283  A    between atoms: _746  and  _747
REMARK  284  A    between atoms: _749  and  _751
REMARK  285  A    between atoms: _751  and  _752
REMARK  286  A    between atoms: _751  and  _754
REMARK  287  A    between atoms: _754  and  _755
REMARK  288  A    between atoms: _761  and  _763
REMARK  289  A    between atoms: _763  and  _764
REMARK  290  A    between atoms: _763  and  _766
REMARK  291  A    between atoms: _766  and  _767
REMARK  292  A    between atoms: _769  and  _771
REMARK  293  A    between atoms: _771  and  _772
REMARK  294  A    between atoms: _771  and  _774
REMARK  295  A    between atoms: _774  and  _775
REMARK  296  A    between atoms: _781  and  _783
REMARK  297  A    between atoms: _783  and  _784
REMARK  298  A    between atoms: _783  and  _786
REMARK  299  A    between atoms: _786  and  _787
REMARK  300  A    between atoms: _787  and  _788
REMARK                            x       y       z     vdW  Elec       q    Type
REMARK                         _______ _______ _______ _____ _____    ______ ____
ROOT
ATOM      1  C   ARG A   1      15.674   6.755 -11.737  0.00  0.00    +0.238 C 
ATOM      2  O   ARG A   1      15.056   5.738 -11.429  0.00  0.00    -0.274 OA
ATOM      3  N   GLU A   2      15.716   7.236 -12.973  0.00  0.00    -0.297 N 
ATOM      4  H   GLU A   2      16.195   8.145 -13.132  0.00  0.00    +0.150 HD
ENDROOT
BRANCH   1   5
ATOM      5  CA  ARG A   1      16.433   7.581 -10.689  0.00  0.00    +0.145 C 
BRANCH   5   6
ATOM      6  N   ARG A   1      15.687   8.799 -10.403  0.00  0.00    -0.238 NA
ATOM      7  H   ARG A   1      15.028   8.802  -9.599  0.00  0.00    +0.142 HD
ENDBRANCH   5   6
BRANCH   5   8
ATOM      8  CB  ARG A   1      16.687   6.781  -9.407  0.00  0.00    +0.030 C 
BRANCH   8   9
ATOM      9  CG  ARG A   1      17.691   7.436  -8.462  0.00  0.00    +0.045 C 
BRANCH   9  10
ATOM     10  CD  ARG A   1      18.089   6.530  -7.308  0.00  0.00    +0.174 C 
BRANCH  10  11
ATOM     11  NE  ARG A   1      18.600   7.293  -6.170  0.00  0.00    -0.265 N 
ATOM     12  CZ  ARG A   1      18.991   6.771  -5.005  0.00  0.00    +0.342 C 
ATOM     13  NH2 ARG A   1      19.411   7.577  -4.023  0.00  0.00    -0.292 N 
ATOM     14 HH21 ARG A   1      19.716   7.174  -3.114  0.00  0.00    +0.255 HD
ATOM     15 HH22 ARG A   1      19.432   8.607  -4.169  0.00  0.00    +0.255 HD
ATOM     16  NH1 ARG A   1      18.954   5.457  -4.798  0.00  0.00    -0.292 N 
ATOM     17 HH11 ARG A   1      19.262   5.066  -3.885  0.00  0.00    +0.255 HD
ATOM     18 HH12 ARG A   1      18.617   4.822  -5.549  0.00  0.00    +0.255 HD
ATOM     19  HE  ARG A   1      18.664   8.326  -6.277  0.00  0.00    +0.259 HD
ENDBRANCH  10  11
ENDBRANCH   9  10
ENDBRANCH   8   9
ENDBRANCH   5   8
ENDBRANCH   1   5
BRANCH   3  20
ATOM     20  CA  GLU A   2      15.123   6.553 -14.124  0.00  0.00    +0.149 C 
BRANCH  20  21
ATOM     21  C   GLU A   2      15.963   6.893 -15.342  0.00  0.00    +0.241 C 
ATOM     22  O   GLU A   2      16.823   7.778 -15.276  0.00  0.00    -0.273 OA
ATOM     23  N   GLY A   3      15.721   6.198 -16.455  0.00  0.00    -0.296 N 
ATOM     24  H   GLY A   3      15.049   5.405 -16.428  0.00  0.00    +0.150 HD
BRANCH  23  25
ATOM     25  CA  GLY A   3      16.389   6.537 -17.715  0.00  0.00    +0.163 C 
BRANCH  25  26
ATOM     26  C   GLY A   3      15.955   7.925 -18.167  0.00  0.00    +0.229 C 
ATOM     27  O   GLY A   3      14.897   8.413 -17.746  0.00  0.00    -0.286 OA
ENDBRANCH  25  26
ENDBRANCH  23  25
ENDBRANCH  20  21
BRANCH  20  28
ATOM     28  CB  GLU A   2      13.678   7.020 -14.345  0.00  0.00    +0.041 C 
BRANCH  28  29
ATOM     29  CG  GLU A   2      12.644   6.259 -13.524  0.00  0.00    +0.116 C 
BRANCH  29  30
ATOM     30  CD  GLU A   2      11.488   7.134 -13.083  0.00  0.00    +0.365 C 
ATOM     31  OE2 GLU A   2      10.911   6.856 -12.004  0.00  0.00    -0.246 OA
ATOM     32  OE1 GLU A   2      11.146   8.103 -13.800  0.00  0.00    -0.246 OA
ENDBRANCH  29  30
ENDBRANCH  28  29
ENDBRANCH  20  28
ENDBRANCH   3  20
TORSDOF 13
REMARK  Name = ../refined-set-2016/4ca5/4ca5_pocket.pdb
REMARK  300 active torsions:
REMARK  status: ('A' for Active; 'I' for Inactive)
REMARK    1  A    between atoms: _1  and  _3
REMARK    2  A    between atoms: _3  and  _4
REMARK    3  A    between atoms: _3  and  _6
REMARK    4  A    between atoms: _6  and  _7
REMARK    5  A    between atoms: _12  and  _14
REMARK    6  A    between atoms: _14  and  _15
REMARK    7  A    between atoms: _14  and  _17
REMARK    8  A    between atoms: _17  and  _18
REMARK    9  A    between atoms: _23  and  _25
REMARK   10  A    between atoms: _25  and  _26
REMARK   11  A    between atoms: _25  and  _28
REMARK   12  A    between atoms: _28  and  _29
REMARK   13  A    between atoms: _29  and  _30
REMARK   14  A    between atoms: _33  and  _35
REMARK   15  A    between atoms: _35  and  _36
REMARK   16  A    between atoms: _35  and  _38
REMARK   17  A    between atoms: _38  and  _39
REMARK   18  A    between atoms: _44  and  _45
REMARK   19  A    between atoms: _47  and  _49
REMARK   20  A    between atoms: _49  and  _50
REMARK   21  A    between atoms: _49  and  _52
REMARK   22  A    between atoms: _52  and  _53
REMARK   23  A    between atoms: _53  and  _54
REMARK   24  A    between atoms: _57  and  _59
REMARK   25  A    between atoms: _59  and  _60
REMARK   26  A    between atoms: _59  and  _62
REMARK   27  A    between atoms: _62  and  _63
REMARK   28  A    between atoms: _66  and  _68
REMARK   29  A    between atoms: _68  and  _69
REMARK   30  A    between atoms: _71  and  _73
REMARK   31  A    between atoms: _73  and  _74
REMARK   32  A    between atoms: _73  and  _76
REMARK   33  A    between atoms: _76  and  _77
REMARK   34  A    between atoms: _82  and  _84
REMARK   35  A    between atoms: _84  and  _85
REMARK   36  A    between atoms: _84  and  _87
REMARK   37  A    between atoms: _87  and  _88
REMARK   38  A    between atoms: _88  and  _89
REMARK   39  A    between atoms: _91  and  _93
REMARK   40  A    between atoms: _93  and  _94
REMARK   41  A    between atoms: _93  and  _96
REMARK   42  A    between atoms: _96  and  _97
REMARK   43  A    between atoms: _107  and  _109
REMARK   44  A    between atoms: _109  and  _110
REMARK   45  A    between atoms: _109  and  _112
REMARK   46  A    between atoms: _112  and  _113
REMARK   47  A    between atoms: _113  and  _114
REMARK   48  A    between atoms: _119  and  _121
REMARK   49  A    between atoms: _121  and  _122
REMARK   50  A    between atoms: _121  and  _124
REMARK   51  A    between atoms: _124  and  _125
REMARK   52  A    between atoms: _128  and  _130
REMARK   53  A    between atoms: _130  and  _131
REMARK   54  A    between atoms: _130  and  _133
REMARK   55  A    between atoms: _133  and  _134
REMARK   56  A    between atoms: _144  and  _146
REMARK   57  A    between atoms: _146  and  _147
REMARK   58  A    between atoms: _146  and  _149
REMARK   59  A    between atoms: _149  and  _150
REMARK   60  A    between atoms: _152  and  _154
REMARK   61  A    between atoms: _154  and  _155
REMARK   62  A    between atoms: _154  and  _157
REMARK   63  A    between atoms: _157  and  _158
REMARK   64  A    between atoms: _163  and  _165
REMARK   65  A    between atoms: _165  and  _166
REMARK   66  A    between atoms: _165  and  _168
REMARK   67  A    between atoms: _171  and  _173
REMARK   68  A    between atoms: _173  and  _174
REMARK   69  A    between atoms: _173  and  _176
REMARK   70  A    between atoms: _178  and  _180
REMARK   71  A    between atoms: _180  and  _181
REMARK   72  A    between atoms: _180  and  _183
REMARK   73  A    between atoms: _183  and  _184
REMARK   74  A    between atoms: _189  and  _191
REMARK   75  A    between atoms: _191  and  _192
REMARK   76  A    between atoms: _195  and  _197
REMARK   77  A    between atoms: _197  and  _198
REMARK   78  A    between atoms: _197  and  _200
REMARK   79  A    between atoms: _200  and  _201
REMARK   80  A    between atoms: _203  and  _205
REMARK   81  A    between atoms: _205  and  _206
REMARK   82  A    between atoms: _209  and  _211
REMARK   83  A    between atoms: _211  and  _212
REMARK   84  A    between atoms: _211  and  _214
REMARK   85  A    between atoms: _214  and  _215
REMARK   86  A    between atoms: _225  and  _227
REMARK   87  A    between atoms: _227  and  _228
REMARK   88  A    between atoms: _227  and  _230
REMARK   89  A    between atoms: _230  and  _231
REMARK   90  A    between atoms: _234  and  _236
REMARK   91  A    between atoms: _236  and  _237
REMARK   92  A    between atoms: _236  and  _239
REMARK   93  A    between atoms: _239  and  _240
REMARK   94  A    between atoms: _245  and  _246
REMARK   95  A    between atoms: _248  and  _250
REMARK   96  A    between atoms: _250  and  _251
REMARK   97  A    between atoms: _250  and  _253
REMARK   98  A    between atoms: _253  and  _254
REMARK   99  A    between atoms: _254  and  _255
REMARK  100  A    between atoms: _255  and  _256
REMARK  101  A    between atoms: _265  and  _267
REMARK  102  A    between atoms: _267  and  _268
REMARK  103  A    between atoms: _267  and  _270
REMARK  104  A    between atoms: _270  and  _271
REMARK  105  A    between atoms: _274  and  _276
REMARK  106  A    between atoms: _276  and  _277
REMARK  107  A    between atoms: _276  and  _279
REMARK  108  A    between atoms: _279  and  _280
REMARK  109  A    between atoms: _280  and  _281
REMARK  110  A    between atoms: _281  and  _282
REMARK  111  A    between atoms: _282  and  _283
REMARK  112  A    between atoms: _287  and  _289
REMARK  113  A    between atoms: _289  and  _290
REMARK  114  A    between atoms: _289  and  _292
REMARK  115  A    between atoms: _292  and  _293
REMARK  116  A    between atoms: _293  and  _294
REMARK  117  A    between atoms: _299  and  _301
REMARK  118  A    between atoms: _301  and  _302
REMARK  119  A    between atoms: _301  and  _304
REMARK  120  A    between atoms: _304  and  _305
REMARK  121  A    between atoms: _310  and  _312
REMARK  122  A    between atoms: _312  and  _313
REMARK  123  A    between atoms: _312  and  _315
REMARK  124  A    between atoms: _315  and  _316
REMARK  125  A    between atoms: _319  and  _321
REMARK  126  A    between atoms: _321  and  _322
REMARK  127  A    between atoms: _321  and  _324
REMARK  128  A    between atoms: _324  and  _325
REMARK  129  A    between atoms: _325  and  _326
REMARK  130  A    between atoms: _329  and  _331
REMARK  131  A    between atoms: _331  and  _332
REMARK  132  A    between atoms: _331  and  _334
REMARK  133  A    between atoms: _334  and  _335
REMARK  134  A    between atoms: _338  and  _340
REMARK  135  A    between atoms: _340  and  _341
REMARK  136  A    between atoms: _340  and  _343
REMARK  137  A    between atoms: _346  and  _348
REMARK  138  A    between atoms: _348  and  _349
REMARK  139  A    between atoms: _348  and  _351
REMARK  140  A    between atoms: _354  and  _356
REMARK  141  A    between atoms: _356  and  _357
REMARK  142  A    between atoms: _360  and  _362
REMARK  143  A    between atoms: _362  and  _363
REMARK  144  A    between atoms: _362  and  _365
REMARK  145  A    between atoms: _365  and  _366
REMARK  146  A    between atoms: _371  and  _373
REMARK  147  A    between atoms: _384  and  _387
REMARK  148  A    between atoms: _387  and  _388
REMARK  149  A    between atoms: _388  and  _389
REMARK  150  A    between atoms: _394  and  _397
REMARK  151  A    between atoms: _397  and  _398
REMARK  152  A    between atoms: _398  and  _399
REMARK  153  A    between atoms: _408  and  _409
REMARK  154  A    between atoms: _417  and  _419
REMARK  155  A    between atoms: _419  and  _420
REMARK  156  A    between atoms: _419  and  _422
REMARK  157  A    between atoms: _422  and  _423
REMARK  158  A    between atoms: _426  and  _428
REMARK  159  A    between atoms: _428  and  _429
REMARK  160  A    between atoms: _428  and  _431
REMARK  161  A    between atoms: _431  and  _432
REMARK  162  A    between atoms: _437  and  _438
REMARK  163  A    between atoms: _440  and  _442
REMARK  164  A    between atoms: _442  and  _443
REMARK  165  A    between atoms: _442  and  _445
REMARK  166  A    between atoms: _445  and  _446
REMARK  167  A    between atoms: _452  and  _454
REMARK  168  A    between atoms: _454  and  _455
REMARK  169  A    between atoms: _454  and  _457
REMARK  170  A    between atoms: _457  and  _458
REMARK  171  A    between atoms: _463  and  _464
REMARK  172  A    between atoms: _466  and  _468
REMARK  173  A    between atoms: _468  and  _469
REMARK  174  A    between atoms: _468  and  _471
REMARK  175  A    between atoms: _471  and  _472
REMARK  176  A    between atoms: _472  and  _473
REMARK  177  A    between atoms: _473  and  _474
REMARK  178  A    between atoms: _483  and  _485
REMARK  179  A    between atoms: _485  and  _486
REMARK  180  A    between atoms: _485  and  _488
REMARK  181  A    between atoms: _488  and  _489
REMARK  182  A    between atoms: _489  and  _490
REMARK  183  A    between atoms: _493  and  _495
REMARK  184  A    between atoms: _495  and  _496
REMARK  185  A    between atoms: _498  and  _500
REMARK  186  A    between atoms: _500  and  _501
REMARK  187  A    between atoms: _500  and  _503
REMARK  188  A    between atoms: _503  and  _504
REMARK  189  A    between atoms: _510  and  _511
REMARK  190  A    between atoms: _516  and  _518
REMARK  191  A    between atoms: _518  and  _519
REMARK  192  A    between atoms: _521  and  _523
REMARK  193  A    between atoms: _523  and  _524
REMARK  194  A    between atoms: _523  and  _526
REMARK  195  A    between atoms: _526  and  _527
REMARK  196  A    between atoms: _533  and  _535
REMARK  197  A    between atoms: _535  and  _536
REMARK  198  A    between atoms: _535  and  _538
REMARK  199  A    between atoms: _538  and  _539
REMARK  200  A    between atoms: _544  and  _546
REMARK  201  A    between atoms: _546  and  _547
REMARK  202  A    between atoms: _546  and  _549
REMARK  203  A    between atoms: _549  and  _550
REMARK  204  A    between atoms: _550  and  _551
REMARK  205  A    between atoms: _551  and  _552
REMARK  206  A    between atoms: _552  and  ZN_793
REMARK  207  A    between atoms: _554  and  _556
REMARK  208  A    between atoms: _556  and  _557
REMARK  209  A    between atoms: _560  and  _562
REMARK  210  A    between atoms: _562  and  _563
REMARK  211  A    between atoms: _562  and  _565
REMARK  212  A    between atoms: _565  and  _566
REMARK  213  A    between atoms: _569  and  _571
REMARK  214  A    between atoms: _571  and  _572
REMARK  215  A    between atoms: _575  and  _577
REMARK  216  A    between atoms: _577  and  _578
REMARK  217  A    between atoms: _577  and  _580
REMARK  218  A    between atoms: _580  and  _581
REMARK  219  A    between atoms: _584  and  _586
REMARK  220  A    between atoms: _586  and  _587
REMARK  221  A    between atoms: _586  and  _589
REMARK  222  A    between atoms: _589  and  _590
REMARK  223  A    between atoms: _590  and  _591
REMARK  224  A    between atoms: _591  and  _592
REMARK  225  A    between atoms: _592  and  _593
REMARK  226  A    between atoms: _597  and  _599
REMARK  227  A    between atoms: _599  and  _600
REMARK  228  A    between atoms: _599  and  _602
REMARK  229  A    between atoms: _602  and  _603
REMARK  230  A    between atoms: _609  and  _611
REMARK  231  A    between atoms: _611  and  _612
REMARK  232  A    between atoms: _611  and  _614
REMARK  233  A    between atoms: _614  and  _615
REMARK  234  A    between atoms: _621  and  _623
REMARK  235  A    between atoms: _623  and  _624
REMARK  236  A    between atoms: _623  and  _626
REMARK  237  A    between atoms: _626  and  _627
REMARK  238  A    between atoms: _629  and  _631
REMARK  239  A    between atoms: _631  and  _632
REMARK  240  A    between atoms: _631  and  _634
REMARK  241  A    between atoms: _637  and  _639
REMARK  242  A    between atoms: _639  and  _640
REMARK  243  A    between atoms: _639  and  _642
REMARK  244  A    between atoms: _642  and  _643
REMARK  245  A    between atoms: _643  and  _644
REMARK  246  A    between atoms: _644  and  _645
REMARK  247  A    between atoms: _645  and  _646
REMARK  248  A    between atoms: _650  and  _652
REMARK  249  A    between atoms: _652  and  _653
REMARK  250  A    between atoms: _652  and  _655
REMARK  251  A    between atoms: _655  and  _656
REMARK  252  A    between atoms: _662  and  _664
REMARK  253  A    between atoms: _664  and  _665
REMARK  254  A    between atoms: _664  and  _667
REMARK  255  A    between atoms: _667  and  _668
REMARK  256  A    between atoms: _673  and  _675
REMARK  257  A    between atoms: _675  and  _676
REMARK  258  A    between atoms: _675  and  _678
REMARK  259  A    between atoms: _678  and  _679
REMARK  260  A    between atoms: _681  and  _683
REMARK  261  A    between atoms: _683  and  _684
REMARK  262  A    between atoms: _683  and  _686
REMARK  263  A    between atoms: _686  and  _687
REMARK  264  A    between atoms: _689  and  _691
REMARK  265  A    between atoms: _691  and  _692
REMARK  266  A    between atoms: _691  and  _694
REMARK  267  A    between atoms: _698  and  _699
REMARK  268  A    between atoms: _704  and  _706
REMARK  269  A    between atoms: _706  and  _707
REMARK  270  A    between atoms: _706  and  _709
REMARK  271  A    between atoms: _709  and  _710
REMARK  272  A    between atoms: _715  and  _716
REMARK  273  A    between atoms: _718  and  _720
REMARK  274  A    between atoms: _720  and  _721
REMARK  275  A    between atoms: _720  and  _723
REMARK  276  A    between atoms: _723  and  _724
REMARK  277  A    between atoms: _724  and  _725
REMARK  278  A    between atoms: _725  and  _726
REMARK  279  A    between atoms: _735  and  _737
REMARK  280  A    between atoms: _737  and  _738
REMARK  281  A    between atoms: _737  and  _740
REMARK  282  A    between atoms: _740  and  _741
REMARK  283  A    between atoms: _746  and  _747
REMARK  284  A    between atoms: _749  and  _751
REMARK  285  A    between atoms: _751  and  _752
REMARK  286  A    between atoms: _751  and  _754
REMARK  287  A    between atoms: _754  and  _755
REMARK  288  A    between atoms: _761  and  _763
REMARK  289  A    between atoms: _763  and  _764
REMARK  290  A    between atoms: _763  and  _766
REMARK  291  A    between atoms: _766  and  _767
REMARK  292  A    between atoms: _769  and  _771
REMARK  293  A    between atoms: _771  and  _772
REMARK  294  A    between atoms: _771  and  _774
REMARK  295  A    between atoms: _774  and  _775
REMARK  296  A    between atoms: _781  and  _783
REMARK  297  A    between atoms: _783  and  _784
REMARK  298  A    between atoms: _783  and  _786
REMARK  299  A    between atoms: _786  and  _787
REMARK  300  A    between atoms: _787  and  _788
REMARK                            x       y       z     vdW  Elec       q    Type
REMARK                         _______ _______ _______ _____ _____    ______ ____
ROOT
ATOM      1  CA  ASP A   1      22.350  -3.578 -26.158  0.00  0.00    +0.144 C 
ENDROOT
BRANCH   1   2
ATOM      2  N   ASP A   1      22.377  -3.186 -24.737  0.00  0.00    -0.239 NA
ATOM      3  H   ASP A   1      21.576  -2.647 -24.351  0.00  0.00    +0.142 HD
ENDBRANCH   1   2
BRANCH   1   4
ATOM      4  C   ASP A   1      23.476  -2.935 -26.956  0.00  0.00    +0.225 C 
ATOM      5  O   ASP A   1      24.033  -3.564 -27.848  0.00  0.00    -0.287 OA
ENDBRANCH   1   4
BRANCH   1   6
ATOM      6  CB  ASP A   1      21.001  -3.228 -26.824  0.00  0.00    +0.139 C 
BRANCH   6   7
ATOM      7  CG  ASP A   1      19.861  -4.124 -26.369  0.00  0.00    +0.367 C 
ATOM      8  OD2 ASP A   1      19.992  -4.822 -25.334  0.00  0.00    -0.246 OA
ATOM      9  OD1 ASP A   1      18.804  -4.118 -27.040  0.00  0.00    -0.246 OA
ENDBRANCH   6   7
ENDBRANCH   1   6
TORSDOF 4
REMARK  Name = ../refined-set-2016/4ca5/4ca5_pocket.pdb
REMARK  300 active torsions:
REMARK  status: ('A' for Active; 'I' for Inactive)
REMARK    1  A    between atoms: _1  and  _3
REMARK    2  A    between atoms: _3  and  _4
REMARK    3  A    between atoms: _3  and  _6
REMARK    4  A    between atoms: _6  and  _7
REMARK    5  A    between atoms: _12  and  _14
REMARK    6  A    between atoms: _14  and  _15
REMARK    7  A    between atoms: _14  and  _17
REMARK    8  A    between atoms: _17  and  _18
REMARK    9  A    between atoms: _23  and  _25
REMARK   10  A    between atoms: _25  and  _26
REMARK   11  A    between atoms: _25  and  _28
REMARK   12  A    between atoms: _28  and  _29
REMARK   13  A    between atoms: _29  and  _30
REMARK   14  A    between atoms: _33  and  _35
REMARK   15  A    between atoms: _35  and  _36
REMARK   16  A    between atoms: _35  and  _38
REMARK   17  A    between atoms: _38  and  _39
REMARK   18  A    between atoms: _44  and  _45
REMARK   19  A    between atoms: _47  and  _49
REMARK   20  A    between atoms: _49  and  _50
REMARK   21  A    between atoms: _49  and  _52
REMARK   22  A    between atoms: _52  and  _53
REMARK   23  A    between atoms: _53  and  _54
REMARK   24  A    between atoms: _57  and  _59
REMARK   25  A    between atoms: _59  and  _60
REMARK   26  A    between atoms: _59  and  _62
REMARK   27  A    between atoms: _62  and  _63
REMARK   28  A    between atoms: _66  and  _68
REMARK   29  A    between atoms: _68  and  _69
REMARK   30  A    between atoms: _71  and  _73
REMARK   31  A    between atoms: _73  and  _74
REMARK   32  A    between atoms: _73  and  _76
REMARK   33  A    between atoms: _76  and  _77
REMARK   34  A    between atoms: _82  and  _84
REMARK   35  A    between atoms: _84  and  _85
REMARK   36  A    between atoms: _84  and  _87
REMARK   37  A    between atoms: _87  and  _88
REMARK   38  A    between atoms: _88  and  _89
REMARK   39  A    between atoms: _91  and  _93
REMARK   40  A    between atoms: _93  and  _94
REMARK   41  A    between atoms: _93  and  _96
REMARK   42  A    between atoms: _96  and  _97
REMARK   43  A    between atoms: _107  and  _109
REMARK   44  A    between atoms: _109  and  _110
REMARK   45  A    between atoms: _109  and  _112
REMARK   46  A    between atoms: _112  and  _113
REMARK   47  A    between atoms: _113  and  _114
REMARK   48  A    between atoms: _119  and  _121
REMARK   49  A    between atoms: _121  and  _122
REMARK   50  A    between atoms: _121  and  _124
REMARK   51  A    between atoms: _124  and  _125
REMARK   52  A    between atoms: _128  and  _130
REMARK   53  A    between atoms: _130  and  _131
REMARK   54  A    between atoms: _130  and  _133
REMARK   55  A    between atoms: _133  and  _134
REMARK   56  A    between atoms: _144  and  _146
REMARK   57  A    between atoms: _146  and  _147
REMARK   58  A    between atoms: _146  and  _149
REMARK   59  A    between atoms: _149  and  _150
REMARK   60  A    between atoms: _152  and  _154
REMARK   61  A    between atoms: _154  and  _155
REMARK   62  A    between atoms: _154  and  _157
REMARK   63  A    between atoms: _157  and  _158
REMARK   64  A    between atoms: _163  and  _165
REMARK   65  A    between atoms: _165  and  _166
REMARK   66  A    between atoms: _165  and  _168
REMARK   67  A    between atoms: _171  and  _173
REMARK   68  A    between atoms: _173  and  _174
REMARK   69  A    between atoms: _173  and  _176
REMARK   70  A    between atoms: _178  and  _180
REMARK   71  A    between atoms: _180  and  _181
REMARK   72  A    between atoms: _180  and  _183
REMARK   73  A    between atoms: _183  and  _184
REMARK   74  A    between atoms: _189  and  _191
REMARK   75  A    between atoms: _191  and  _192
REMARK   76  A    between atoms: _195  and  _197
REMARK   77  A    between atoms: _197  and  _198
REMARK   78  A    between atoms: _197  and  _200
REMARK   79  A    between atoms: _200  and  _201
REMARK   80  A    between atoms: _203  and  _205
REMARK   81  A    between atoms: _205  and  _206
REMARK   82  A    between atoms: _209  and  _211
REMARK   83  A    between atoms: _211  and  _212
REMARK   84  A    between atoms: _211  and  _214
REMARK   85  A    between atoms: _214  and  _215
REMARK   86  A    between atoms: _225  and  _227
REMARK   87  A    between atoms: _227  and  _228
REMARK   88  A    between atoms: _227  and  _230
REMARK   89  A    between atoms: _230  and  _231
REMARK   90  A    between atoms: _234  and  _236
REMARK   91  A    between atoms: _236  and  _237
REMARK   92  A    between atoms: _236  and  _239
REMARK   93  A    between atoms: _239  and  _240
REMARK   94  A    between atoms: _245  and  _246
REMARK   95  A    between atoms: _248  and  _250
REMARK   96  A    between atoms: _250  and  _251
REMARK   97  A    between atoms: _250  and  _253
REMARK   98  A    between atoms: _253  and  _254
REMARK   99  A    between atoms: _254  and  _255
REMARK  100  A    between atoms: _255  and  _256
REMARK  101  A    between atoms: _265  and  _267
REMARK  102  A    between atoms: _267  and  _268
REMARK  103  A    between atoms: _267  and  _270
REMARK  104  A    between atoms: _270  and  _271
REMARK  105  A    between atoms: _274  and  _276
REMARK  106  A    between atoms: _276  and  _277
REMARK  107  A    between atoms: _276  and  _279
REMARK  108  A    between atoms: _279  and  _280
REMARK  109  A    between atoms: _280  and  _281
REMARK  110  A    between atoms: _281  and  _282
REMARK  111  A    between atoms: _282  and  _283
REMARK  112  A    between atoms: _287  and  _289
REMARK  113  A    between atoms: _289  and  _290
REMARK  114  A    between atoms: _289  and  _292
REMARK  115  A    between atoms: _292  and  _293
REMARK  116  A    between atoms: _293  and  _294
REMARK  117  A    between atoms: _299  and  _301
REMARK  118  A    between atoms: _301  and  _302
REMARK  119  A    between atoms: _301  and  _304
REMARK  120  A    between atoms: _304  and  _305
REMARK  121  A    between atoms: _310  and  _312
REMARK  122  A    between atoms: _312  and  _313
REMARK  123  A    between atoms: _312  and  _315
REMARK  124  A    between atoms: _315  and  _316
REMARK  125  A    between atoms: _319  and  _321
REMARK  126  A    between atoms: _321  and  _322
REMARK  127  A    between atoms: _321  and  _324
REMARK  128  A    between atoms: _324  and  _325
REMARK  129  A    between atoms: _325  and  _326
REMARK  130  A    between atoms: _329  and  _331
REMARK  131  A    between atoms: _331  and  _332
REMARK  132  A    between atoms: _331  and  _334
REMARK  133  A    between atoms: _334  and  _335
REMARK  134  A    between atoms: _338  and  _340
REMARK  135  A    between atoms: _340  and  _341
REMARK  136  A    between atoms: _340  and  _343
REMARK  137  A    between atoms: _346  and  _348
REMARK  138  A    between atoms: _348  and  _349
REMARK  139  A    between atoms: _348  and  _351
REMARK  140  A    between atoms: _354  and  _356
REMARK  141  A    between atoms: _356  and  _357
REMARK  142  A    between atoms: _360  and  _362
REMARK  143  A    between atoms: _362  and  _363
REMARK  144  A    between atoms: _362  and  _365
REMARK  145  A    between atoms: _365  and  _366
REMARK  146  A    between atoms: _371  and  _373
REMARK  147  A    between atoms: _384  and  _387
REMARK  148  A    between atoms: _387  and  _388
REMARK  149  A    between atoms: _388  and  _389
REMARK  150  A    between atoms: _394  and  _397
REMARK  151  A    between atoms: _397  and  _398
REMARK  152  A    between atoms: _398  and  _399
REMARK  153  A    between atoms: _408  and  _409
REMARK  154  A    between atoms: _417  and  _419
REMARK  155  A    between atoms: _419  and  _420
REMARK  156  A    between atoms: _419  and  _422
REMARK  157  A    between atoms: _422  and  _423
REMARK  158  A    between atoms: _426  and  _428
REMARK  159  A    between atoms: _428  and  _429
REMARK  160  A    between atoms: _428  and  _431
REMARK  161  A    between atoms: _431  and  _432
REMARK  162  A    between atoms: _437  and  _438
REMARK  163  A    between atoms: _440  and  _442
REMARK  164  A    between atoms: _442  and  _443
REMARK  165  A    between atoms: _442  and  _445
REMARK  166  A    between atoms: _445  and  _446
REMARK  167  A    between atoms: _452  and  _454
REMARK  168  A    between atoms: _454  and  _455
REMARK  169  A    between atoms: _454  and  _457
REMARK  170  A    between atoms: _457  and  _458
REMARK  171  A    between atoms: _463  and  _464
REMARK  172  A    between atoms: _466  and  _468
REMARK  173  A    between atoms: _468  and  _469
REMARK  174  A    between atoms: _468  and  _471
REMARK  175  A    between atoms: _471  and  _472
REMARK  176  A    between atoms: _472  and  _473
REMARK  177  A    between atoms: _473  and  _474
REMARK  178  A    between atoms: _483  and  _485
REMARK  179  A    between atoms: _485  and  _486
REMARK  180  A    between atoms: _485  and  _488
REMARK  181  A    between atoms: _488  and  _489
REMARK  182  A    between atoms: _489  and  _490
REMARK  183  A    between atoms: _493  and  _495
REMARK  184  A    between atoms: _495  and  _496
REMARK  185  A    between atoms: _498  and  _500
REMARK  186  A    between atoms: _500  and  _501
REMARK  187  A    between atoms: _500  and  _503
REMARK  188  A    between atoms: _503  and  _504
REMARK  189  A    between atoms: _510  and  _511
REMARK  190  A    between atoms: _516  and  _518
REMARK  191  A    between atoms: _518  and  _519
REMARK  192  A    between atoms: _521  and  _523
REMARK  193  A    between atoms: _523  and  _524
REMARK  194  A    between atoms: _523  and  _526
REMARK  195  A    between atoms: _526  and  _527
REMARK  196  A    between atoms: _533  and  _535
REMARK  197  A    between atoms: _535  and  _536
REMARK  198  A    between atoms: _535  and  _538
REMARK  199  A    between atoms: _538  and  _539
REMARK  200  A    between atoms: _544  and  _546
REMARK  201  A    between atoms: _546  and  _547
REMARK  202  A    between atoms: _546  and  _549
REMARK  203  A    between atoms: _549  and  _550
REMARK  204  A    between atoms: _550  and  _551
REMARK  205  A    between atoms: _551  and  _552
REMARK  206  A    between atoms: _552  and  ZN_793
REMARK  207  A    between atoms: _554  and  _556
REMARK  208  A    between atoms: _556  and  _557
REMARK  209  A    between atoms: _560  and  _562
REMARK  210  A    between atoms: _562  and  _563
REMARK  211  A    between atoms: _562  and  _565
REMARK  212  A    between atoms: _565  and  _566
REMARK  213  A    between atoms: _569  and  _571
REMARK  214  A    between atoms: _571  and  _572
REMARK  215  A    between atoms: _575  and  _577
REMARK  216  A    between atoms: _577  and  _578
REMARK  217  A    between atoms: _577  and  _580
REMARK  218  A    between atoms: _580  and  _581
REMARK  219  A    between atoms: _584  and  _586
REMARK  220  A    between atoms: _586  and  _587
REMARK  221  A    between atoms: _586  and  _589
REMARK  222  A    between atoms: _589  and  _590
REMARK  223  A    between atoms: _590  and  _591
REMARK  224  A    between atoms: _591  and  _592
REMARK  225  A    between atoms: _592  and  _593
REMARK  226  A    between atoms: _597  and  _599
REMARK  227  A    between atoms: _599  and  _600
REMARK  228  A    between atoms: _599  and  _602
REMARK  229  A    between atoms: _602  and  _603
REMARK  230  A    between atoms: _609  and  _611
REMARK  231  A    between atoms: _611  and  _612
REMARK  232  A    between atoms: _611  and  _614
REMARK  233  A    between atoms: _614  and  _615
REMARK  234  A    between atoms: _621  and  _623
REMARK  235  A    between atoms: _623  and  _624
REMARK  236  A    between atoms: _623  and  _626
REMARK  237  A    between atoms: _626  and  _627
REMARK  238  A    between atoms: _629  and  _631
REMARK  239  A    between atoms: _631  and  _632
REMARK  240  A    between atoms: _631  and  _634
REMARK  241  A    between atoms: _637  and  _639
REMARK  242  A    between atoms: _639  and  _640
REMARK  243  A    between atoms: _639  and  _642
REMARK  244  A    between atoms: _642  and  _643
REMARK  245  A    between atoms: _643  and  _644
REMARK  246  A    between atoms: _644  and  _645
REMARK  247  A    between atoms: _645  and  _646
REMARK  248  A    between atoms: _650  and  _652
REMARK  249  A    between atoms: _652  and  _653
REMARK  250  A    between atoms: _652  and  _655
REMARK  251  A    between atoms: _655  and  _656
REMARK  252  A    between atoms: _662  and  _664
REMARK  253  A    between atoms: _664  and  _665
REMARK  254  A    between atoms: _664  and  _667
REMARK  255  A    between atoms: _667  and  _668
REMARK  256  A    between atoms: _673  and  _675
REMARK  257  A    between atoms: _675  and  _676
REMARK  258  A    between atoms: _675  and  _678
REMARK  259  A    between atoms: _678  and  _679
REMARK  260  A    between atoms: _681  and  _683
REMARK  261  A    between atoms: _683  and  _684
REMARK  262  A    between atoms: _683  and  _686
REMARK  263  A    between atoms: _686  and  _687
REMARK  264  A    between atoms: _689  and  _691
REMARK  265  A    between atoms: _691  and  _692
REMARK  266  A    between atoms: _691  and  _694
REMARK  267  A    between atoms: _698  and  _699
REMARK  268  A    between atoms: _704  and  _706
REMARK  269  A    between atoms: _706  and  _707
REMARK  270  A    between atoms: _706  and  _709
REMARK  271  A    between atoms: _709  and  _710
REMARK  272  A    between atoms: _715  and  _716
REMARK  273  A    between atoms: _718  and  _720
REMARK  274  A    between atoms: _720  and  _721
REMARK  275  A    between atoms: _720  and  _723
REMARK  276  A    between atoms: _723  and  _724
REMARK  277  A    between atoms: _724  and  _725
REMARK  278  A    between atoms: _725  and  _726
REMARK  279  A    between atoms: _735  and  _737
REMARK  280  A    between atoms: _737  and  _738
REMARK  281  A    between atoms: _737  and  _740
REMARK  282  A    between atoms: _740  and  _741
REMARK  283  A    between atoms: _746  and  _747
REMARK  284  A    between atoms: _749  and  _751
REMARK  285  A    between atoms: _751  and  _752
REMARK  286  A    between atoms: _751  and  _754
REMARK  287  A    between atoms: _754  and  _755
REMARK  288  A    between atoms: _761  and  _763
REMARK  289  A    between atoms: _763  and  _764
REMARK  290  A    between atoms: _763  and  _766
REMARK  291  A    between atoms: _766  and  _767
REMARK  292  A    between atoms: _769  and  _771
REMARK  293  A    between atoms: _771  and  _772
REMARK  294  A    between atoms: _771  and  _774
REMARK  295  A    between atoms: _774  and  _775
REMARK  296  A    between atoms: _781  and  _783
REMARK  297  A    between atoms: _783  and  _784
REMARK  298  A    between atoms: _783  and  _786
REMARK  299  A    between atoms: _786  and  _787
REMARK  300  A    between atoms: _787  and  _788
REMARK                            x       y       z     vdW  Elec       q    Type
REMARK                         _______ _______ _______ _____ _____    ______ ____
ROOT
ATOM      1  CA  ALA A   1      26.258  -6.189 -26.971  0.00  0.00    +0.133 C 
ATOM      2  CB  ALA A   1      24.858  -6.696 -26.648  0.00  0.00    +0.027 C 
ENDROOT
BRANCH   1   3
ATOM      3  N   ALA A   1      26.504  -4.893 -26.338  0.00  0.00    -0.239 NA
ATOM      4  H   ALA A   1      25.723  -4.418 -25.843  0.00  0.00    +0.142 HD
ENDBRANCH   1   3
BRANCH   1   5
ATOM      5  C   ALA A   1      26.489  -6.157 -28.485  0.00  0.00    +0.224 C 
ATOM      6  O   ALA A   1      26.918  -7.163 -29.069  0.00  0.00    -0.287 OA
ENDBRANCH   1   5
TORSDOF 2
REMARK  Name = ../refined-set-2016/4ca5/4ca5_pocket.pdb
REMARK  300 active torsions:
REMARK  status: ('A' for Active; 'I' for Inactive)
REMARK    1  A    between atoms: _1  and  _3
REMARK    2  A    between atoms: _3  and  _4
REMARK    3  A    between atoms: _3  and  _6
REMARK    4  A    between atoms: _6  and  _7
REMARK    5  A    between atoms: _12  and  _14
REMARK    6  A    between atoms: _14  and  _15
REMARK    7  A    between atoms: _14  and  _17
REMARK    8  A    between atoms: _17  and  _18
REMARK    9  A    between atoms: _23  and  _25
REMARK   10  A    between atoms: _25  and  _26
REMARK   11  A    between atoms: _25  and  _28
REMARK   12  A    between atoms: _28  and  _29
REMARK   13  A    between atoms: _29  and  _30
REMARK   14  A    between atoms: _33  and  _35
REMARK   15  A    between atoms: _35  and  _36
REMARK   16  A    between atoms: _35  and  _38
REMARK   17  A    between atoms: _38  and  _39
REMARK   18  A    between atoms: _44  and  _45
REMARK   19  A    between atoms: _47  and  _49
REMARK   20  A    between atoms: _49  and  _50
REMARK   21  A    between atoms: _49  and  _52
REMARK   22  A    between atoms: _52  and  _53
REMARK   23  A    between atoms: _53  and  _54
REMARK   24  A    between atoms: _57  and  _59
REMARK   25  A    between atoms: _59  and  _60
REMARK   26  A    between atoms: _59  and  _62
REMARK   27  A    between atoms: _62  and  _63
REMARK   28  A    between atoms: _66  and  _68
REMARK   29  A    between atoms: _68  and  _69
REMARK   30  A    between atoms: _71  and  _73
REMARK   31  A    between atoms: _73  and  _74
REMARK   32  A    between atoms: _73  and  _76
REMARK   33  A    between atoms: _76  and  _77
REMARK   34  A    between atoms: _82  and  _84
REMARK   35  A    between atoms: _84  and  _85
REMARK   36  A    between atoms: _84  and  _87
REMARK   37  A    between atoms: _87  and  _88
REMARK   38  A    between atoms: _88  and  _89
REMARK   39  A    between atoms: _91  and  _93
REMARK   40  A    between atoms: _93  and  _94
REMARK   41  A    between atoms: _93  and  _96
REMARK   42  A    between atoms: _96  and  _97
REMARK   43  A    between atoms: _107  and  _109
REMARK   44  A    between atoms: _109  and  _110
REMARK   45  A    between atoms: _109  and  _112
REMARK   46  A    between atoms: _112  and  _113
REMARK   47  A    between atoms: _113  and  _114
REMARK   48  A    between atoms: _119  and  _121
REMARK   49  A    between atoms: _121  and  _122
REMARK   50  A    between atoms: _121  and  _124
REMARK   51  A    between atoms: _124  and  _125
REMARK   52  A    between atoms: _128  and  _130
REMARK   53  A    between atoms: _130  and  _131
REMARK   54  A    between atoms: _130  and  _133
REMARK   55  A    between atoms: _133  and  _134
REMARK   56  A    between atoms: _144  and  _146
REMARK   57  A    between atoms: _146  and  _147
REMARK   58  A    between atoms: _146  and  _149
REMARK   59  A    between atoms: _149  and  _150
REMARK   60  A    between atoms: _152  and  _154
REMARK   61  A    between atoms: _154  and  _155
REMARK   62  A    between atoms: _154  and  _157
REMARK   63  A    between atoms: _157  and  _158
REMARK   64  A    between atoms: _163  and  _165
REMARK   65  A    between atoms: _165  and  _166
REMARK   66  A    between atoms: _165  and  _168
REMARK   67  A    between atoms: _171  and  _173
REMARK   68  A    between atoms: _173  and  _174
REMARK   69  A    between atoms: _173  and  _176
REMARK   70  A    between atoms: _178  and  _180
REMARK   71  A    between atoms: _180  and  _181
REMARK   72  A    between atoms: _180  and  _183
REMARK   73  A    between atoms: _183  and  _184
REMARK   74  A    between atoms: _189  and  _191
REMARK   75  A    between atoms: _191  and  _192
REMARK   76  A    between atoms: _195  and  _197
REMARK   77  A    between atoms: _197  and  _198
REMARK   78  A    between atoms: _197  and  _200
REMARK   79  A    between atoms: _200  and  _201
REMARK   80  A    between atoms: _203  and  _205
REMARK   81  A    between atoms: _205  and  _206
REMARK   82  A    between atoms: _209  and  _211
REMARK   83  A    between atoms: _211  and  _212
REMARK   84  A    between atoms: _211  and  _214
REMARK   85  A    between atoms: _214  and  _215
REMARK   86  A    between atoms: _225  and  _227
REMARK   87  A    between atoms: _227  and  _228
REMARK   88  A    between atoms: _227  and  _230
REMARK   89  A    between atoms: _230  and  _231
REMARK   90  A    between atoms: _234  and  _236
REMARK   91  A    between atoms: _236  and  _237
REMARK   92  A    between atoms: _236  and  _239
REMARK   93  A    between atoms: _239  and  _240
REMARK   94  A    between atoms: _245  and  _246
REMARK   95  A    between atoms: _248  and  _250
REMARK   96  A    between atoms: _250  and  _251
REMARK   97  A    between atoms: _250  and  _253
REMARK   98  A    between atoms: _253  and  _254
REMARK   99  A    between atoms: _254  and  _255
REMARK  100  A    between atoms: _255  and  _256
REMARK  101  A    between atoms: _265  and  _267
REMARK  102  A    between atoms: _267  and  _268
REMARK  103  A    between atoms: _267  and  _270
REMARK  104  A    between atoms: _270  and  _271
REMARK  105  A    between atoms: _274  and  _276
REMARK  106  A    between atoms: _276  and  _277
REMARK  107  A    between atoms: _276  and  _279
REMARK  108  A    between atoms: _279  and  _280
REMARK  109  A    between atoms: _280  and  _281
REMARK  110  A    between atoms: _281  and  _282
REMARK  111  A    between atoms: _282  and  _283
REMARK  112  A    between atoms: _287  and  _289
REMARK  113  A    between atoms: _289  and  _290
REMARK  114  A    between atoms: _289  and  _292
REMARK  115  A    between atoms: _292  and  _293
REMARK  116  A    between atoms: _293  and  _294
REMARK  117  A    between atoms: _299  and  _301
REMARK  118  A    between atoms: _301  and  _302
REMARK  119  A    between atoms: _301  and  _304
REMARK  120  A    between atoms: _304  and  _305
REMARK  121  A    between atoms: _310  and  _312
REMARK  122  A    between atoms: _312  and  _313
REMARK  123  A    between atoms: _312  and  _315
REMARK  124  A    between atoms: _315  and  _316
REMARK  125  A    between atoms: _319  and  _321
REMARK  126  A    between atoms: _321  and  _322
REMARK  127  A    between atoms: _321  and  _324
REMARK  128  A    between atoms: _324  and  _325
REMARK  129  A    between atoms: _325  and  _326
REMARK  130  A    between atoms: _329  and  _331
REMARK  131  A    between atoms: _331  and  _332
REMARK  132  A    between atoms: _331  and  _334
REMARK  133  A    between atoms: _334  and  _335
REMARK  134  A    between atoms: _338  and  _340
REMARK  135  A    between atoms: _340  and  _341
REMARK  136  A    between atoms: _340  and  _343
REMARK  137  A    between atoms: _346  and  _348
REMARK  138  A    between atoms: _348  and  _349
REMARK  139  A    between atoms: _348  and  _351
REMARK  140  A    between atoms: _354  and  _356
REMARK  141  A    between atoms: _356  and  _357
REMARK  142  A    between atoms: _360  and  _362
REMARK  143  A    between atoms: _362  and  _363
REMARK  144  A    between atoms: _362  and  _365
REMARK  145  A    between atoms: _365  and  _366
REMARK  146  A    between atoms: _371  and  _373
REMARK  147  A    between atoms: _384  and  _387
REMARK  148  A    between atoms: _387  and  _388
REMARK  149  A    between atoms: _388  and  _389
REMARK  150  A    between atoms: _394  and  _397
REMARK  151  A    between atoms: _397  and  _398
REMARK  152  A    between atoms: _398  and  _399
REMARK  153  A    between atoms: _408  and  _409
REMARK  154  A    between atoms: _417  and  _419
REMARK  155  A    between atoms: _419  and  _420
REMARK  156  A    between atoms: _419  and  _422
REMARK  157  A    between atoms: _422  and  _423
REMARK  158  A    between atoms: _426  and  _428
REMARK  159  A    between atoms: _428  and  _429
REMARK  160  A    between atoms: _428  and  _431
REMARK  161  A    between atoms: _431  and  _432
REMARK  162  A    between atoms: _437  and  _438
REMARK  163  A    between atoms: _440  and  _442
REMARK  164  A    between atoms: _442  and  _443
REMARK  165  A    between atoms: _442  and  _445
REMARK  166  A    between atoms: _445  and  _446
REMARK  167  A    between atoms: _452  and  _454
REMARK  168  A    between atoms: _454  and  _455
REMARK  169  A    between atoms: _454  and  _457
REMARK  170  A    between atoms: _457  and  _458
REMARK  171  A    between atoms: _463  and  _464
REMARK  172  A    between atoms: _466  and  _468
REMARK  173  A    between atoms: _468  and  _469
REMARK  174  A    between atoms: _468  and  _471
REMARK  175  A    between atoms: _471  and  _472
REMARK  176  A    between atoms: _472  and  _473
REMARK  177  A    between atoms: _473  and  _474
REMARK  178  A    between atoms: _483  and  _485
REMARK  179  A    between atoms: _485  and  _486
REMARK  180  A    between atoms: _485  and  _488
REMARK  181  A    between atoms: _488  and  _489
REMARK  182  A    between atoms: _489  and  _490
REMARK  183  A    between atoms: _493  and  _495
REMARK  184  A    between atoms: _495  and  _496
REMARK  185  A    between atoms: _498  and  _500
REMARK  186  A    between atoms: _500  and  _501
REMARK  187  A    between atoms: _500  and  _503
REMARK  188  A    between atoms: _503  and  _504
REMARK  189  A    between atoms: _510  and  _511
REMARK  190  A    between atoms: _516  and  _518
REMARK  191  A    between atoms: _518  and  _519
REMARK  192  A    between atoms: _521  and  _523
REMARK  193  A    between atoms: _523  and  _524
REMARK  194  A    between atoms: _523  and  _526
REMARK  195  A    between atoms: _526  and  _527
REMARK  196  A    between atoms: _533  and  _535
REMARK  197  A    between atoms: _535  and  _536
REMARK  198  A    between atoms: _535  and  _538
REMARK  199  A    between atoms: _538  and  _539
REMARK  200  A    between atoms: _544  and  _546
REMARK  201  A    between atoms: _546  and  _547
REMARK  202  A    between atoms: _546  and  _549
REMARK  203  A    between atoms: _549  and  _550
REMARK  204  A    between atoms: _550  and  _551
REMARK  205  A    between atoms: _551  and  _552
REMARK  206  A    between atoms: _552  and  ZN_793
REMARK  207  A    between atoms: _554  and  _556
REMARK  208  A    between atoms: _556  and  _557
REMARK  209  A    between atoms: _560  and  _562
REMARK  210  A    between atoms: _562  and  _563
REMARK  211  A    between atoms: _562  and  _565
REMARK  212  A    between atoms: _565  and  _566
REMARK  213  A    between atoms: _569  and  _571
REMARK  214  A    between atoms: _571  and  _572
REMARK  215  A    between atoms: _575  and  _577
REMARK  216  A    between atoms: _577  and  _578
REMARK  217  A    between atoms: _577  and  _580
REMARK  218  A    between atoms: _580  and  _581
REMARK  219  A    between atoms: _584  and  _586
REMARK  220  A    between atoms: _586  and  _587
REMARK  221  A    between atoms: _586  and  _589
REMARK  222  A    between atoms: _589  and  _590
REMARK  223  A    between atoms: _590  and  _591
REMARK  224  A    between atoms: _591  and  _592
REMARK  225  A    between atoms: _592  and  _593
REMARK  226  A    between atoms: _597  and  _599
REMARK  227  A    between atoms: _599  and  _600
REMARK  228  A    between atoms: _599  and  _602
REMARK  229  A    between atoms: _602  and  _603
REMARK  230  A    between atoms: _609  and  _611
REMARK  231  A    between atoms: _611  and  _612
REMARK  232  A    between atoms: _611  and  _614
REMARK  233  A    between atoms: _614  and  _615
REMARK  234  A    between atoms: _621  and  _623
REMARK  235  A    between atoms: _623  and  _624
REMARK  236  A    between atoms: _623  and  _626
REMARK  237  A    between atoms: _626  and  _627
REMARK  238  A    between atoms: _629  and  _631
REMARK  239  A    between atoms: _631  and  _632
REMARK  240  A    between atoms: _631  and  _634
REMARK  241  A    between atoms: _637  and  _639
REMARK  242  A    between atoms: _639  and  _640
REMARK  243  A    between atoms: _639  and  _642
REMARK  244  A    between atoms: _642  and  _643
REMARK  245  A    between atoms: _643  and  _644
REMARK  246  A    between atoms: _644  and  _645
REMARK  247  A    between atoms: _645  and  _646
REMARK  248  A    between atoms: _650  and  _652
REMARK  249  A    between atoms: _652  and  _653
REMARK  250  A    between atoms: _652  and  _655
REMARK  251  A    between atoms: _655  and  _656
REMARK  252  A    between atoms: _662  and  _664
REMARK  253  A    between atoms: _664  and  _665
REMARK  254  A    between atoms: _664  and  _667
REMARK  255  A    between atoms: _667  and  _668
REMARK  256  A    between atoms: _673  and  _675
REMARK  257  A    between atoms: _675  and  _676
REMARK  258  A    between atoms: _675  and  _678
REMARK  259  A    between atoms: _678  and  _679
REMARK  260  A    between atoms: _681  and  _683
REMARK  261  A    between atoms: _683  and  _684
REMARK  262  A    between atoms: _683  and  _686
REMARK  263  A    between atoms: _686  and  _687
REMARK  264  A    between atoms: _689  and  _691
REMARK  265  A    between atoms: _691  and  _692
REMARK  266  A    between atoms: _691  and  _694
REMARK  267  A    between atoms: _698  and  _699
REMARK  268  A    between atoms: _704  and  _706
REMARK  269  A    between atoms: _706  and  _707
REMARK  270  A    between atoms: _706  and  _709
REMARK  271  A    between atoms: _709  and  _710
REMARK  272  A    between atoms: _715  and  _716
REMARK  273  A    between atoms: _718  and  _720
REMARK  274  A    between atoms: _720  and  _721
REMARK  275  A    between atoms: _720  and  _723
REMARK  276  A    between atoms: _723  and  _724
REMARK  277  A    between atoms: _724  and  _725
REMARK  278  A    between atoms: _725  and  _726
REMARK  279  A    between atoms: _735  and  _737
REMARK  280  A    between atoms: _737  and  _738
REMARK  281  A    between atoms: _737  and  _740
REMARK  282  A    between atoms: _740  and  _741
REMARK  283  A    between atoms: _746  and  _747
REMARK  284  A    between atoms: _749  and  _751
REMARK  285  A    between atoms: _751  and  _752
REMARK  286  A    between atoms: _751  and  _754
REMARK  287  A    between atoms: _754  and  _755
REMARK  288  A    between atoms: _761  and  _763
REMARK  289  A    between atoms: _763  and  _764
REMARK  290  A    between atoms: _763  and  _766
REMARK  291  A    between atoms: _766  and  _767
REMARK  292  A    between atoms: _769  and  _771
REMARK  293  A    between atoms: _771  and  _772
REMARK  294  A    between atoms: _771  and  _774
REMARK  295  A    between atoms: _774  and  _775
REMARK  296  A    between atoms: _781  and  _783
REMARK  297  A    between atoms: _783  and  _784
REMARK  298  A    between atoms: _783  and  _786
REMARK  299  A    between atoms: _786  and  _787
REMARK  300  A    between atoms: _787  and  _788
REMARK                            x       y       z     vdW  Elec       q    Type
REMARK                         _______ _______ _______ _____ _____    ______ ____
ROOT
ATOM      1  C   ASP A   1      16.721  -8.322 -34.744  0.00  0.00    +0.239 C 
ATOM      2  O   ASP A   1      15.619  -7.952 -34.333  0.00  0.00    -0.274 OA
ATOM      3  N   LYS A   2      17.644  -7.484 -35.204  0.00  0.00    -0.298 N 
ATOM      4  H   LYS A   2      18.475  -7.856 -35.706  0.00  0.00    +0.150 HD
ENDROOT
BRANCH   1   5
ATOM      5  CA  ASP A   1      17.079  -9.802 -34.754  0.00  0.00    +0.156 C 
BRANCH   5   6
ATOM      6  N   ASP A   1      17.558 -10.280 -36.038  0.00  0.00    -0.238 NA
ATOM      7  H   ASP A   1      18.552 -10.141 -36.310  0.00  0.00    +0.142 HD
ENDBRANCH   5   6
BRANCH   5   8
ATOM      8  CB  ASP A   1      18.094 -10.123 -33.682  0.00  0.00    +0.140 C 
BRANCH   8   9
ATOM      9  CG  ASP A   1      18.154 -11.594 -33.396  0.00  0.00    +0.367 C 
ATOM     10  OD2 ASP A   1      19.188 -12.046 -32.871  0.00  0.00    -0.246 OA
ATOM     11  OD1 ASP A   1      17.153 -12.298 -33.709  0.00  0.00    -0.246 OA
ENDBRANCH   8   9
ENDBRANCH   5   8
ENDBRANCH   1   5
BRANCH   3  12
ATOM     12  CA  LYS A   2      17.498  -6.042 -35.009  0.00  0.00    +0.137 C 
BRANCH  12  13
ATOM     13  C   LYS A   2      16.435  -5.449 -35.926  0.00  0.00    +0.227 C 
ATOM     14  O   LYS A   2      15.739  -4.526 -35.533  0.00  0.00    -0.286 OA
ENDBRANCH  12  13
BRANCH  12  15
ATOM     15  CB  LYS A   2      18.852  -5.334 -35.190  0.00  0.00    +0.028 C 
BRANCH  15  16
ATOM     16  CG  LYS A   2      19.919  -5.770 -34.174  0.00  0.00    -0.000 C 
BRANCH  16  17
ATOM     17  CD  LYS A   2      19.518  -5.431 -32.728  0.00  0.00    -0.024 C 
BRANCH  17  18
ATOM     18  CE  LYS A   2      20.569  -5.895 -31.723  0.00  0.00    -0.086 C 
BRANCH  18  19
ATOM     19  NZ  LYS A   2      20.150  -5.572 -30.320  0.00  0.00    +0.380 N 
ATOM     20  HZ1 LYS A   2      20.882  -5.898 -29.657  0.00  0.00    -0.089 HD
ATOM     21  HZ2 LYS A   2      19.251  -6.051 -30.109  0.00  0.00    -0.089 HD
ATOM     22  HZ3 LYS A   2      20.027  -4.544 -30.224  0.00  0.00    -0.089 HD
ENDBRANCH  18  19
ENDBRANCH  17  18
ENDBRANCH  16  17
ENDBRANCH  15  16
ENDBRANCH  12  15
ENDBRANCH   3  12
TORSDOF 11
REMARK  Name = ../refined-set-2016/4ca5/4ca5_pocket.pdb
REMARK  300 active torsions:
REMARK  status: ('A' for Active; 'I' for Inactive)
REMARK    1  A    between atoms: _1  and  _3
REMARK    2  A    between atoms: _3  and  _4
REMARK    3  A    between atoms: _3  and  _6
REMARK    4  A    between atoms: _6  and  _7
REMARK    5  A    between atoms: _12  and  _14
REMARK    6  A    between atoms: _14  and  _15
REMARK    7  A    between atoms: _14  and  _17
REMARK    8  A    between atoms: _17  and  _18
REMARK    9  A    between atoms: _23  and  _25
REMARK   10  A    between atoms: _25  and  _26
REMARK   11  A    between atoms: _25  and  _28
REMARK   12  A    between atoms: _28  and  _29
REMARK   13  A    between atoms: _29  and  _30
REMARK   14  A    between atoms: _33  and  _35
REMARK   15  A    between atoms: _35  and  _36
REMARK   16  A    between atoms: _35  and  _38
REMARK   17  A    between atoms: _38  and  _39
REMARK   18  A    between atoms: _44  and  _45
REMARK   19  A    between atoms: _47  and  _49
REMARK   20  A    between atoms: _49  and  _50
REMARK   21  A    between atoms: _49  and  _52
REMARK   22  A    between atoms: _52  and  _53
REMARK   23  A    between atoms: _53  and  _54
REMARK   24  A    between atoms: _57  and  _59
REMARK   25  A    between atoms: _59  and  _60
REMARK   26  A    between atoms: _59  and  _62
REMARK   27  A    between atoms: _62  and  _63
REMARK   28  A    between atoms: _66  and  _68
REMARK   29  A    between atoms: _68  and  _69
REMARK   30  A    between atoms: _71  and  _73
REMARK   31  A    between atoms: _73  and  _74
REMARK   32  A    between atoms: _73  and  _76
REMARK   33  A    between atoms: _76  and  _77
REMARK   34  A    between atoms: _82  and  _84
REMARK   35  A    between atoms: _84  and  _85
REMARK   36  A    between atoms: _84  and  _87
REMARK   37  A    between atoms: _87  and  _88
REMARK   38  A    between atoms: _88  and  _89
REMARK   39  A    between atoms: _91  and  _93
REMARK   40  A    between atoms: _93  and  _94
REMARK   41  A    between atoms: _93  and  _96
REMARK   42  A    between atoms: _96  and  _97
REMARK   43  A    between atoms: _107  and  _109
REMARK   44  A    between atoms: _109  and  _110
REMARK   45  A    between atoms: _109  and  _112
REMARK   46  A    between atoms: _112  and  _113
REMARK   47  A    between atoms: _113  and  _114
REMARK   48  A    between atoms: _119  and  _121
REMARK   49  A    between atoms: _121  and  _122
REMARK   50  A    between atoms: _121  and  _124
REMARK   51  A    between atoms: _124  and  _125
REMARK   52  A    between atoms: _128  and  _130
REMARK   53  A    between atoms: _130  and  _131
REMARK   54  A    between atoms: _130  and  _133
REMARK   55  A    between atoms: _133  and  _134
REMARK   56  A    between atoms: _144  and  _146
REMARK   57  A    between atoms: _146  and  _147
REMARK   58  A    between atoms: _146  and  _149
REMARK   59  A    between atoms: _149  and  _150
REMARK   60  A    between atoms: _152  and  _154
REMARK   61  A    between atoms: _154  and  _155
REMARK   62  A    between atoms: _154  and  _157
REMARK   63  A    between atoms: _157  and  _158
REMARK   64  A    between atoms: _163  and  _165
REMARK   65  A    between atoms: _165  and  _166
REMARK   66  A    between atoms: _165  and  _168
REMARK   67  A    between atoms: _171  and  _173
REMARK   68  A    between atoms: _173  and  _174
REMARK   69  A    between atoms: _173  and  _176
REMARK   70  A    between atoms: _178  and  _180
REMARK   71  A    between atoms: _180  and  _181
REMARK   72  A    between atoms: _180  and  _183
REMARK   73  A    between atoms: _183  and  _184
REMARK   74  A    between atoms: _189  and  _191
REMARK   75  A    between atoms: _191  and  _192
REMARK   76  A    between atoms: _195  and  _197
REMARK   77  A    between atoms: _197  and  _198
REMARK   78  A    between atoms: _197  and  _200
REMARK   79  A    between atoms: _200  and  _201
REMARK   80  A    between atoms: _203  and  _205
REMARK   81  A    between atoms: _205  and  _206
REMARK   82  A    between atoms: _209  and  _211
REMARK   83  A    between atoms: _211  and  _212
REMARK   84  A    between atoms: _211  and  _214
REMARK   85  A    between atoms: _214  and  _215
REMARK   86  A    between atoms: _225  and  _227
REMARK   87  A    between atoms: _227  and  _228
REMARK   88  A    between atoms: _227  and  _230
REMARK   89  A    between atoms: _230  and  _231
REMARK   90  A    between atoms: _234  and  _236
REMARK   91  A    between atoms: _236  and  _237
REMARK   92  A    between atoms: _236  and  _239
REMARK   93  A    between atoms: _239  and  _240
REMARK   94  A    between atoms: _245  and  _246
REMARK   95  A    between atoms: _248  and  _250
REMARK   96  A    between atoms: _250  and  _251
REMARK   97  A    between atoms: _250  and  _253
REMARK   98  A    between atoms: _253  and  _254
REMARK   99  A    between atoms: _254  and  _255
REMARK  100  A    between atoms: _255  and  _256
REMARK  101  A    between atoms: _265  and  _267
REMARK  102  A    between atoms: _267  and  _268
REMARK  103  A    between atoms: _267  and  _270
REMARK  104  A    between atoms: _270  and  _271
REMARK  105  A    between atoms: _274  and  _276
REMARK  106  A    between atoms: _276  and  _277
REMARK  107  A    between atoms: _276  and  _279
REMARK  108  A    between atoms: _279  and  _280
REMARK  109  A    between atoms: _280  and  _281
REMARK  110  A    between atoms: _281  and  _282
REMARK  111  A    between atoms: _282  and  _283
REMARK  112  A    between atoms: _287  and  _289
REMARK  113  A    between atoms: _289  and  _290
REMARK  114  A    between atoms: _289  and  _292
REMARK  115  A    between atoms: _292  and  _293
REMARK  116  A    between atoms: _293  and  _294
REMARK  117  A    between atoms: _299  and  _301
REMARK  118  A    between atoms: _301  and  _302
REMARK  119  A    between atoms: _301  and  _304
REMARK  120  A    between atoms: _304  and  _305
REMARK  121  A    between atoms: _310  and  _312
REMARK  122  A    between atoms: _312  and  _313
REMARK  123  A    between atoms: _312  and  _315
REMARK  124  A    between atoms: _315  and  _316
REMARK  125  A    between atoms: _319  and  _321
REMARK  126  A    between atoms: _321  and  _322
REMARK  127  A    between atoms: _321  and  _324
REMARK  128  A    between atoms: _324  and  _325
REMARK  129  A    between atoms: _325  and  _326
REMARK  130  A    between atoms: _329  and  _331
REMARK  131  A    between atoms: _331  and  _332
REMARK  132  A    between atoms: _331  and  _334
REMARK  133  A    between atoms: _334  and  _335
REMARK  134  A    between atoms: _338  and  _340
REMARK  135  A    between atoms: _340  and  _341
REMARK  136  A    between atoms: _340  and  _343
REMARK  137  A    between atoms: _346  and  _348
REMARK  138  A    between atoms: _348  and  _349
REMARK  139  A    between atoms: _348  and  _351
REMARK  140  A    between atoms: _354  and  _356
REMARK  141  A    between atoms: _356  and  _357
REMARK  142  A    between atoms: _360  and  _362
REMARK  143  A    between atoms: _362  and  _363
REMARK  144  A    between atoms: _362  and  _365
REMARK  145  A    between atoms: _365  and  _366
REMARK  146  A    between atoms: _371  and  _373
REMARK  147  A    between atoms: _384  and  _387
REMARK  148  A    between atoms: _387  and  _388
REMARK  149  A    between atoms: _388  and  _389
REMARK  150  A    between atoms: _394  and  _397
REMARK  151  A    between atoms: _397  and  _398
REMARK  152  A    between atoms: _398  and  _399
REMARK  153  A    between atoms: _408  and  _409
REMARK  154  A    between atoms: _417  and  _419
REMARK  155  A    between atoms: _419  and  _420
REMARK  156  A    between atoms: _419  and  _422
REMARK  157  A    between atoms: _422  and  _423
REMARK  158  A    between atoms: _426  and  _428
REMARK  159  A    between atoms: _428  and  _429
REMARK  160  A    between atoms: _428  and  _431
REMARK  161  A    between atoms: _431  and  _432
REMARK  162  A    between atoms: _437  and  _438
REMARK  163  A    between atoms: _440  and  _442
REMARK  164  A    between atoms: _442  and  _443
REMARK  165  A    between atoms: _442  and  _445
REMARK  166  A    between atoms: _445  and  _446
REMARK  167  A    between atoms: _452  and  _454
REMARK  168  A    between atoms: _454  and  _455
REMARK  169  A    between atoms: _454  and  _457
REMARK  170  A    between atoms: _457  and  _458
REMARK  171  A    between atoms: _463  and  _464
REMARK  172  A    between atoms: _466  and  _468
REMARK  173  A    between atoms: _468  and  _469
REMARK  174  A    between atoms: _468  and  _471
REMARK  175  A    between atoms: _471  and  _472
REMARK  176  A    between atoms: _472  and  _473
REMARK  177  A    between atoms: _473  and  _474
REMARK  178  A    between atoms: _483  and  _485
REMARK  179  A    between atoms: _485  and  _486
REMARK  180  A    between atoms: _485  and  _488
REMARK  181  A    between atoms: _488  and  _489
REMARK  182  A    between atoms: _489  and  _490
REMARK  183  A    between atoms: _493  and  _495
REMARK  184  A    between atoms: _495  and  _496
REMARK  185  A    between atoms: _498  and  _500
REMARK  186  A    between atoms: _500  and  _501
REMARK  187  A    between atoms: _500  and  _503
REMARK  188  A    between atoms: _503  and  _504
REMARK  189  A    between atoms: _510  and  _511
REMARK  190  A    between atoms: _516  and  _518
REMARK  191  A    between atoms: _518  and  _519
REMARK  192  A    between atoms: _521  and  _523
REMARK  193  A    between atoms: _523  and  _524
REMARK  194  A    between atoms: _523  and  _526
REMARK  195  A    between atoms: _526  and  _527
REMARK  196  A    between atoms: _533  and  _535
REMARK  197  A    between atoms: _535  and  _536
REMARK  198  A    between atoms: _535  and  _538
REMARK  199  A    between atoms: _538  and  _539
REMARK  200  A    between atoms: _544  and  _546
REMARK  201  A    between atoms: _546  and  _547
REMARK  202  A    between atoms: _546  and  _549
REMARK  203  A    between atoms: _549  and  _550
REMARK  204  A    between atoms: _550  and  _551
REMARK  205  A    between atoms: _551  and  _552
REMARK  206  A    between atoms: _552  and  ZN_793
REMARK  207  A    between atoms: _554  and  _556
REMARK  208  A    between atoms: _556  and  _557
REMARK  209  A    between atoms: _560  and  _562
REMARK  210  A    between atoms: _562  and  _563
REMARK  211  A    between atoms: _562  and  _565
REMARK  212  A    between atoms: _565  and  _566
REMARK  213  A    between atoms: _569  and  _571
REMARK  214  A    between atoms: _571  and  _572
REMARK  215  A    between atoms: _575  and  _577
REMARK  216  A    between atoms: _577  and  _578
REMARK  217  A    between atoms: _577  and  _580
REMARK  218  A    between atoms: _580  and  _581
REMARK  219  A    between atoms: _584  and  _586
REMARK  220  A    between atoms: _586  and  _587
REMARK  221  A    between atoms: _586  and  _589
REMARK  222  A    between atoms: _589  and  _590
REMARK  223  A    between atoms: _590  and  _591
REMARK  224  A    between atoms: _591  and  _592
REMARK  225  A    between atoms: _592  and  _593
REMARK  226  A    between atoms: _597  and  _599
REMARK  227  A    between atoms: _599  and  _600
REMARK  228  A    between atoms: _599  and  _602
REMARK  229  A    between atoms: _602  and  _603
REMARK  230  A    between atoms: _609  and  _611
REMARK  231  A    between atoms: _611  and  _612
REMARK  232  A    between atoms: _611  and  _614
REMARK  233  A    between atoms: _614  and  _615
REMARK  234  A    between atoms: _621  and  _623
REMARK  235  A    between atoms: _623  and  _624
REMARK  236  A    between atoms: _623  and  _626
REMARK  237  A    between atoms: _626  and  _627
REMARK  238  A    between atoms: _629  and  _631
REMARK  239  A    between atoms: _631  and  _632
REMARK  240  A    between atoms: _631  and  _634
REMARK  241  A    between atoms: _637  and  _639
REMARK  242  A    between atoms: _639  and  _640
REMARK  243  A    between atoms: _639  and  _642
REMARK  244  A    between atoms: _642  and  _643
REMARK  245  A    between atoms: _643  and  _644
REMARK  246  A    between atoms: _644  and  _645
REMARK  247  A    between atoms: _645  and  _646
REMARK  248  A    between atoms: _650  and  _652
REMARK  249  A    between atoms: _652  and  _653
REMARK  250  A    between atoms: _652  and  _655
REMARK  251  A    between atoms: _655  and  _656
REMARK  252  A    between atoms: _662  and  _664
REMARK  253  A    between atoms: _664  and  _665
REMARK  254  A    between atoms: _664  and  _667
REMARK  255  A    between atoms: _667  and  _668
REMARK  256  A    between atoms: _673  and  _675
REMARK  257  A    between atoms: _675  and  _676
REMARK  258  A    between atoms: _675  and  _678
REMARK  259  A    between atoms: _678  and  _679
REMARK  260  A    between atoms: _681  and  _683
REMARK  261  A    between atoms: _683  and  _684
REMARK  262  A    between atoms: _683  and  _686
REMARK  263  A    between atoms: _686  and  _687
REMARK  264  A    between atoms: _689  and  _691
REMARK  265  A    between atoms: _691  and  _692
REMARK  266  A    between atoms: _691  and  _694
REMARK  267  A    between atoms: _698  and  _699
REMARK  268  A    between atoms: _704  and  _706
REMARK  269  A    between atoms: _706  and  _707
REMARK  270  A    between atoms: _706  and  _709
REMARK  271  A    between atoms: _709  and  _710
REMARK  272  A    between atoms: _715  and  _716
REMARK  273  A    between atoms: _718  and  _720
REMARK  274  A    between atoms: _720  and  _721
REMARK  275  A    between atoms: _720  and  _723
REMARK  276  A    between atoms: _723  and  _724
REMARK  277  A    between atoms: _724  and  _725
REMARK  278  A    between atoms: _725  and  _726
REMARK  279  A    between atoms: _735  and  _737
REMARK  280  A    between atoms: _737  and  _738
REMARK  281  A    between atoms: _737  and  _740
REMARK  282  A    between atoms: _740  and  _741
REMARK  283  A    between atoms: _746  and  _747
REMARK  284  A    between atoms: _749  and  _751
REMARK  285  A    between atoms: _751  and  _752
REMARK  286  A    between atoms: _751  and  _754
REMARK  287  A    between atoms: _754  and  _755
REMARK  288  A    between atoms: _761  and  _763
REMARK  289  A    between atoms: _763  and  _764
REMARK  290  A    between atoms: _763  and  _766
REMARK  291  A    between atoms: _766  and  _767
REMARK  292  A    between atoms: _769  and  _771
REMARK  293  A    between atoms: _771  and  _772
REMARK  294  A    between atoms: _771  and  _774
REMARK  295  A    between atoms: _774  and  _775
REMARK  296  A    between atoms: _781  and  _783
REMARK  297  A    between atoms: _783  and  _784
REMARK  298  A    between atoms: _783  and  _786
REMARK  299  A    between atoms: _786  and  _787
REMARK  300  A    between atoms: _787  and  _788
REMARK                            x       y       z     vdW  Elec       q    Type
REMARK                         _______ _______ _______ _____ _____    ______ ____
ROOT
ATOM      1  CB  PHE A   1      13.079  -6.628 -32.909  0.00  0.00    +0.051 C 
ENDROOT
BRANCH   1   2
ATOM      2  CG  PHE A   1      12.514  -6.321 -31.542  0.00  0.00    -0.020 A 
ATOM      3  CD2 PHE A   1      11.737  -7.260 -30.863  0.00  0.00    -0.004 A 
ATOM      4  CE2 PHE A   1      11.245  -6.981 -29.592  0.00  0.00    -0.000 A 
ATOM      5  CZ  PHE A   1      11.540  -5.770 -28.983  0.00  0.00    -0.000 A 
ATOM      6  CE1 PHE A   1      12.329  -4.839 -29.640  0.00  0.00    -0.000 A 
ATOM      7  CD1 PHE A   1      12.802  -5.113 -30.918  0.00  0.00    -0.004 A 
ENDBRANCH   1   2
BRANCH   1   8
ATOM      8  CA  PHE A   1      12.035  -6.686 -34.032  0.00  0.00    +0.137 C 
BRANCH   8   9
ATOM      9  N   PHE A   1      12.656  -7.177 -35.270  0.00  0.00    -0.239 NA
ATOM     10  H   PHE A   1      13.693  -7.231 -35.331  0.00  0.00    +0.142 HD
ENDBRANCH   8   9
BRANCH   8  11
ATOM     11  C   PHE A   1      11.342  -5.331 -34.177  0.00  0.00    +0.224 C 
ATOM     12  O   PHE A   1      10.475  -5.002 -33.368  0.00  0.00    -0.287 OA
ENDBRANCH   8  11
ENDBRANCH   1   8
TORSDOF 4
REMARK  Name = ../refined-set-2016/4ca5/4ca5_pocket.pdb
REMARK  300 active torsions:
REMARK  status: ('A' for Active; 'I' for Inactive)
REMARK    1  A    between atoms: _1  and  _3
REMARK    2  A    between atoms: _3  and  _4
REMARK    3  A    between atoms: _3  and  _6
REMARK    4  A    between atoms: _6  and  _7
REMARK    5  A    between atoms: _12  and  _14
REMARK    6  A    between atoms: _14  and  _15
REMARK    7  A    between atoms: _14  and  _17
REMARK    8  A    between atoms: _17  and  _18
REMARK    9  A    between atoms: _23  and  _25
REMARK   10  A    between atoms: _25  and  _26
REMARK   11  A    between atoms: _25  and  _28
REMARK   12  A    between atoms: _28  and  _29
REMARK   13  A    between atoms: _29  and  _30
REMARK   14  A    between atoms: _33  and  _35
REMARK   15  A    between atoms: _35  and  _36
REMARK   16  A    between atoms: _35  and  _38
REMARK   17  A    between atoms: _38  and  _39
REMARK   18  A    between atoms: _44  and  _45
REMARK   19  A    between atoms: _47  and  _49
REMARK   20  A    between atoms: _49  and  _50
REMARK   21  A    between atoms: _49  and  _52
REMARK   22  A    between atoms: _52  and  _53
REMARK   23  A    between atoms: _53  and  _54
REMARK   24  A    between atoms: _57  and  _59
REMARK   25  A    between atoms: _59  and  _60
REMARK   26  A    between atoms: _59  and  _62
REMARK   27  A    between atoms: _62  and  _63
REMARK   28  A    between atoms: _66  and  _68
REMARK   29  A    between atoms: _68  and  _69
REMARK   30  A    between atoms: _71  and  _73
REMARK   31  A    between atoms: _73  and  _74
REMARK   32  A    between atoms: _73  and  _76
REMARK   33  A    between atoms: _76  and  _77
REMARK   34  A    between atoms: _82  and  _84
REMARK   35  A    between atoms: _84  and  _85
REMARK   36  A    between atoms: _84  and  _87
REMARK   37  A    between atoms: _87  and  _88
REMARK   38  A    between atoms: _88  and  _89
REMARK   39  A    between atoms: _91  and  _93
REMARK   40  A    between atoms: _93  and  _94
REMARK   41  A    between atoms: _93  and  _96
REMARK   42  A    between atoms: _96  and  _97
REMARK   43  A    between atoms: _107  and  _109
REMARK   44  A    between atoms: _109  and  _110
REMARK   45  A    between atoms: _109  and  _112
REMARK   46  A    between atoms: _112  and  _113
REMARK   47  A    between atoms: _113  and  _114
REMARK   48  A    between atoms: _119  and  _121
REMARK   49  A    between atoms: _121  and  _122
REMARK   50  A    between atoms: _121  and  _124
REMARK   51  A    between atoms: _124  and  _125
REMARK   52  A    between atoms: _128  and  _130
REMARK   53  A    between atoms: _130  and  _131
REMARK   54  A    between atoms: _130  and  _133
REMARK   55  A    between atoms: _133  and  _134
REMARK   56  A    between atoms: _144  and  _146
REMARK   57  A    between atoms: _146  and  _147
REMARK   58  A    between atoms: _146  and  _149
REMARK   59  A    between atoms: _149  and  _150
REMARK   60  A    between atoms: _152  and  _154
REMARK   61  A    between atoms: _154  and  _155
REMARK   62  A    between atoms: _154  and  _157
REMARK   63  A    between atoms: _157  and  _158
REMARK   64  A    between atoms: _163  and  _165
REMARK   65  A    between atoms: _165  and  _166
REMARK   66  A    between atoms: _165  and  _168
REMARK   67  A    between atoms: _171  and  _173
REMARK   68  A    between atoms: _173  and  _174
REMARK   69  A    between atoms: _173  and  _176
REMARK   70  A    between atoms: _178  and  _180
REMARK   71  A    between atoms: _180  and  _181
REMARK   72  A    between atoms: _180  and  _183
REMARK   73  A    between atoms: _183  and  _184
REMARK   74  A    between atoms: _189  and  _191
REMARK   75  A    between atoms: _191  and  _192
REMARK   76  A    between atoms: _195  and  _197
REMARK   77  A    between atoms: _197  and  _198
REMARK   78  A    between atoms: _197  and  _200
REMARK   79  A    between atoms: _200  and  _201
REMARK   80  A    between atoms: _203  and  _205
REMARK   81  A    between atoms: _205  and  _206
REMARK   82  A    between atoms: _209  and  _211
REMARK   83  A    between atoms: _211  and  _212
REMARK   84  A    between atoms: _211  and  _214
REMARK   85  A    between atoms: _214  and  _215
REMARK   86  A    between atoms: _225  and  _227
REMARK   87  A    between atoms: _227  and  _228
REMARK   88  A    between atoms: _227  and  _230
REMARK   89  A    between atoms: _230  and  _231
REMARK   90  A    between atoms: _234  and  _236
REMARK   91  A    between atoms: _236  and  _237
REMARK   92  A    between atoms: _236  and  _239
REMARK   93  A    between atoms: _239  and  _240
REMARK   94  A    between atoms: _245  and  _246
REMARK   95  A    between atoms: _248  and  _250
REMARK   96  A    between atoms: _250  and  _251
REMARK   97  A    between atoms: _250  and  _253
REMARK   98  A    between atoms: _253  and  _254
REMARK   99  A    between atoms: _254  and  _255
REMARK  100  A    between atoms: _255  and  _256
REMARK  101  A    between atoms: _265  and  _267
REMARK  102  A    between atoms: _267  and  _268
REMARK  103  A    between atoms: _267  and  _270
REMARK  104  A    between atoms: _270  and  _271
REMARK  105  A    between atoms: _274  and  _276
REMARK  106  A    between atoms: _276  and  _277
REMARK  107  A    between atoms: _276  and  _279
REMARK  108  A    between atoms: _279  and  _280
REMARK  109  A    between atoms: _280  and  _281
REMARK  110  A    between atoms: _281  and  _282
REMARK  111  A    between atoms: _282  and  _283
REMARK  112  A    between atoms: _287  and  _289
REMARK  113  A    between atoms: _289  and  _290
REMARK  114  A    between atoms: _289  and  _292
REMARK  115  A    between atoms: _292  and  _293
REMARK  116  A    between atoms: _293  and  _294
REMARK  117  A    between atoms: _299  and  _301
REMARK  118  A    between atoms: _301  and  _302
REMARK  119  A    between atoms: _301  and  _304
REMARK  120  A    between atoms: _304  and  _305
REMARK  121  A    between atoms: _310  and  _312
REMARK  122  A    between atoms: _312  and  _313
REMARK  123  A    between atoms: _312  and  _315
REMARK  124  A    between atoms: _315  and  _316
REMARK  125  A    between atoms: _319  and  _321
REMARK  126  A    between atoms: _321  and  _322
REMARK  127  A    between atoms: _321  and  _324
REMARK  128  A    between atoms: _324  and  _325
REMARK  129  A    between atoms: _325  and  _326
REMARK  130  A    between atoms: _329  and  _331
REMARK  131  A    between atoms: _331  and  _332
REMARK  132  A    between atoms: _331  and  _334
REMARK  133  A    between atoms: _334  and  _335
REMARK  134  A    between atoms: _338  and  _340
REMARK  135  A    between atoms: _340  and  _341
REMARK  136  A    between atoms: _340  and  _343
REMARK  137  A    between atoms: _346  and  _348
REMARK  138  A    between atoms: _348  and  _349
REMARK  139  A    between atoms: _348  and  _351
REMARK  140  A    between atoms: _354  and  _356
REMARK  141  A    between atoms: _356  and  _357
REMARK  142  A    between atoms: _360  and  _362
REMARK  143  A    between atoms: _362  and  _363
REMARK  144  A    between atoms: _362  and  _365
REMARK  145  A    between atoms: _365  and  _366
REMARK  146  A    between atoms: _371  and  _373
REMARK  147  A    between atoms: _384  and  _387
REMARK  148  A    between atoms: _387  and  _388
REMARK  149  A    between atoms: _388  and  _389
REMARK  150  A    between atoms: _394  and  _397
REMARK  151  A    between atoms: _397  and  _398
REMARK  152  A    between atoms: _398  and  _399
REMARK  153  A    between atoms: _408  and  _409
REMARK  154  A    between atoms: _417  and  _419
REMARK  155  A    between atoms: _419  and  _420
REMARK  156  A    between atoms: _419  and  _422
REMARK  157  A    between atoms: _422  and  _423
REMARK  158  A    between atoms: _426  and  _428
REMARK  159  A    between atoms: _428  and  _429
REMARK  160  A    between atoms: _428  and  _431
REMARK  161  A    between atoms: _431  and  _432
REMARK  162  A    between atoms: _437  and  _438
REMARK  163  A    between atoms: _440  and  _442
REMARK  164  A    between atoms: _442  and  _443
REMARK  165  A    between atoms: _442  and  _445
REMARK  166  A    between atoms: _445  and  _446
REMARK  167  A    between atoms: _452  and  _454
REMARK  168  A    between atoms: _454  and  _455
REMARK  169  A    between atoms: _454  and  _457
REMARK  170  A    between atoms: _457  and  _458
REMARK  171  A    between atoms: _463  and  _464
REMARK  172  A    between atoms: _466  and  _468
REMARK  173  A    between atoms: _468  and  _469
REMARK  174  A    between atoms: _468  and  _471
REMARK  175  A    between atoms: _471  and  _472
REMARK  176  A    between atoms: _472  and  _473
REMARK  177  A    between atoms: _473  and  _474
REMARK  178  A    between atoms: _483  and  _485
REMARK  179  A    between atoms: _485  and  _486
REMARK  180  A    between atoms: _485  and  _488
REMARK  181  A    between atoms: _488  and  _489
REMARK  182  A    between atoms: _489  and  _490
REMARK  183  A    between atoms: _493  and  _495
REMARK  184  A    between atoms: _495  and  _496
REMARK  185  A    between atoms: _498  and  _500
REMARK  186  A    between atoms: _500  and  _501
REMARK  187  A    between atoms: _500  and  _503
REMARK  188  A    between atoms: _503  and  _504
REMARK  189  A    between atoms: _510  and  _511
REMARK  190  A    between atoms: _516  and  _518
REMARK  191  A    between atoms: _518  and  _519
REMARK  192  A    between atoms: _521  and  _523
REMARK  193  A    between atoms: _523  and  _524
REMARK  194  A    between atoms: _523  and  _526
REMARK  195  A    between atoms: _526  and  _527
REMARK  196  A    between atoms: _533  and  _535
REMARK  197  A    between atoms: _535  and  _536
REMARK  198  A    between atoms: _535  and  _538
REMARK  199  A    between atoms: _538  and  _539
REMARK  200  A    between atoms: _544  and  _546
REMARK  201  A    between atoms: _546  and  _547
REMARK  202  A    between atoms: _546  and  _549
REMARK  203  A    between atoms: _549  and  _550
REMARK  204  A    between atoms: _550  and  _551
REMARK  205  A    between atoms: _551  and  _552
REMARK  206  A    between atoms: _552  and  ZN_793
REMARK  207  A    between atoms: _554  and  _556
REMARK  208  A    between atoms: _556  and  _557
REMARK  209  A    between atoms: _560  and  _562
REMARK  210  A    between atoms: _562  and  _563
REMARK  211  A    between atoms: _562  and  _565
REMARK  212  A    between atoms: _565  and  _566
REMARK  213  A    between atoms: _569  and  _571
REMARK  214  A    between atoms: _571  and  _572
REMARK  215  A    between atoms: _575  and  _577
REMARK  216  A    between atoms: _577  and  _578
REMARK  217  A    between atoms: _577  and  _580
REMARK  218  A    between atoms: _580  and  _581
REMARK  219  A    between atoms: _584  and  _586
REMARK  220  A    between atoms: _586  and  _587
REMARK  221  A    between atoms: _586  and  _589
REMARK  222  A    between atoms: _589  and  _590
REMARK  223  A    between atoms: _590  and  _591
REMARK  224  A    between atoms: _591  and  _592
REMARK  225  A    between atoms: _592  and  _593
REMARK  226  A    between atoms: _597  and  _599
REMARK  227  A    between atoms: _599  and  _600
REMARK  228  A    between atoms: _599  and  _602
REMARK  229  A    between atoms: _602  and  _603
REMARK  230  A    between atoms: _609  and  _611
REMARK  231  A    between atoms: _611  and  _612
REMARK  232  A    between atoms: _611  and  _614
REMARK  233  A    between atoms: _614  and  _615
REMARK  234  A    between atoms: _621  and  _623
REMARK  235  A    between atoms: _623  and  _624
REMARK  236  A    between atoms: _623  and  _626
REMARK  237  A    between atoms: _626  and  _627
REMARK  238  A    between atoms: _629  and  _631
REMARK  239  A    between atoms: _631  and  _632
REMARK  240  A    between atoms: _631  and  _634
REMARK  241  A    between atoms: _637  and  _639
REMARK  242  A    between atoms: _639  and  _640
REMARK  243  A    between atoms: _639  and  _642
REMARK  244  A    between atoms: _642  and  _643
REMARK  245  A    between atoms: _643  and  _644
REMARK  246  A    between atoms: _644  and  _645
REMARK  247  A    between atoms: _645  and  _646
REMARK  248  A    between atoms: _650  and  _652
REMARK  249  A    between atoms: _652  and  _653
REMARK  250  A    between atoms: _652  and  _655
REMARK  251  A    between atoms: _655  and  _656
REMARK  252  A    between atoms: _662  and  _664
REMARK  253  A    between atoms: _664  and  _665
REMARK  254  A    between atoms: _664  and  _667
REMARK  255  A    between atoms: _667  and  _668
REMARK  256  A    between atoms: _673  and  _675
REMARK  257  A    between atoms: _675  and  _676
REMARK  258  A    between atoms: _675  and  _678
REMARK  259  A    between atoms: _678  and  _679
REMARK  260  A    between atoms: _681  and  _683
REMARK  261  A    between atoms: _683  and  _684
REMARK  262  A    between atoms: _683  and  _686
REMARK  263  A    between atoms: _686  and  _687
REMARK  264  A    between atoms: _689  and  _691
REMARK  265  A    between atoms: _691  and  _692
REMARK  266  A    between atoms: _691  and  _694
REMARK  267  A    between atoms: _698  and  _699
REMARK  268  A    between atoms: _704  and  _706
REMARK  269  A    between atoms: _706  and  _707
REMARK  270  A    between atoms: _706  and  _709
REMARK  271  A    between atoms: _709  and  _710
REMARK  272  A    between atoms: _715  and  _716
REMARK  273  A    between atoms: _718  and  _720
REMARK  274  A    between atoms: _720  and  _721
REMARK  275  A    between atoms: _720  and  _723
REMARK  276  A    between atoms: _723  and  _724
REMARK  277  A    between atoms: _724  and  _725
REMARK  278  A    between atoms: _725  and  _726
REMARK  279  A    between atoms: _735  and  _737
REMARK  280  A    between atoms: _737  and  _738
REMARK  281  A    between atoms: _737  and  _740
REMARK  282  A    between atoms: _740  and  _741
REMARK  283  A    between atoms: _746  and  _747
REMARK  284  A    between atoms: _749  and  _751
REMARK  285  A    between atoms: _751  and  _752
REMARK  286  A    between atoms: _751  and  _754
REMARK  287  A    between atoms: _754  and  _755
REMARK  288  A    between atoms: _761  and  _763
REMARK  289  A    between atoms: _763  and  _764
REMARK  290  A    between atoms: _763  and  _766
REMARK  291  A    between atoms: _766  and  _767
REMARK  292  A    between atoms: _769  and  _771
REMARK  293  A    between atoms: _771  and  _772
REMARK  294  A    between atoms: _771  and  _774
REMARK  295  A    between atoms: _774  and  _775
REMARK  296  A    between atoms: _781  and  _783
REMARK  297  A    between atoms: _783  and  _784
REMARK  298  A    between atoms: _783  and  _786
REMARK  299  A    between atoms: _786  and  _787
REMARK  300  A    between atoms: _787  and  _788
REMARK                            x       y       z     vdW  Elec       q    Type
REMARK                         _______ _______ _______ _____ _____    ______ ____
ROOT
ATOM      1  CA  PHE A   1       6.942  -6.262 -33.427  0.00  0.00    +0.149 C 
ENDROOT
BRANCH   1   2
ATOM      2  C   PHE A   1       6.892  -5.252 -32.269  0.00  0.00    +0.239 C 
ATOM      3  O   PHE A   1       5.835  -5.052 -31.663  0.00  0.00    -0.274 OA
ATOM      4  N   SER A   2       8.022  -4.595 -31.998  0.00  0.00    -0.296 N 
ATOM      5  H   SER A   2       8.852  -4.733 -32.609  0.00  0.00    +0.150 HD
BRANCH   4   6
ATOM      6  CA  SER A   2       8.114  -3.684 -30.856  0.00  0.00    +0.166 C 
BRANCH   6   7
ATOM      7  CB  SER A   2       7.205  -2.480 -31.021  0.00  0.00    +0.229 C 
ATOM      8  OG  SER A   2       6.764  -1.885 -30.026  0.00  0.00    -0.286 OA
ENDBRANCH   6   7
BRANCH   6   9
ATOM      9  C   SER A   2       9.552  -3.236 -30.594  0.00  0.00    +0.165 C 
BRANCH   9  10
ATOM     10  O   SER A   2      10.107  -2.551 -31.698  0.00  0.00    -0.380 OA
ATOM     11  H   SER A   2      10.109  -3.148 -32.488  0.00  0.00    +0.211 HD
ENDBRANCH   9  10
ENDBRANCH   6   9
ENDBRANCH   4   6
ENDBRANCH   1   2
BRANCH   1  12
ATOM     12  N   PHE A   1       7.514  -5.647 -34.612  0.00  0.00    -0.238 NA
ATOM     13  H   PHE A   1       8.411  -5.998 -35.004  0.00  0.00    +0.142 HD
ENDBRANCH   1  12
BRANCH   1  14
ATOM     14  CB  PHE A   1       7.681  -7.543 -33.007  0.00  0.00    +0.053 C 
BRANCH  14  15
ATOM     15  CG  PHE A   1       7.113  -8.170 -31.764  0.00  0.00    -0.020 A 
ATOM     16  CD2 PHE A   1       7.663  -7.896 -30.510  0.00  0.00    -0.004 A 
ATOM     17  CE2 PHE A   1       7.118  -8.455 -29.365  0.00  0.00    -0.000 A 
ATOM     18  CZ  PHE A   1       6.024  -9.307 -29.447  0.00  0.00    -0.000 A 
ATOM     19  CE1 PHE A   1       5.452  -9.581 -30.688  0.00  0.00    -0.000 A 
ATOM     20  CD1 PHE A   1       5.999  -9.010 -31.837  0.00  0.00    -0.004 A 
ENDBRANCH  14  15
ENDBRANCH   1  14
TORSDOF 8
REMARK  Name = ../refined-set-2016/4ca5/4ca5_pocket.pdb
REMARK  300 active torsions:
REMARK  status: ('A' for Active; 'I' for Inactive)
REMARK    1  A    between atoms: _1  and  _3
REMARK    2  A    between atoms: _3  and  _4
REMARK    3  A    between atoms: _3  and  _6
REMARK    4  A    between atoms: _6  and  _7
REMARK    5  A    between atoms: _12  and  _14
REMARK    6  A    between atoms: _14  and  _15
REMARK    7  A    between atoms: _14  and  _17
REMARK    8  A    between atoms: _17  and  _18
REMARK    9  A    between atoms: _23  and  _25
REMARK   10  A    between atoms: _25  and  _26
REMARK   11  A    between atoms: _25  and  _28
REMARK   12  A    between atoms: _28  and  _29
REMARK   13  A    between atoms: _29  and  _30
REMARK   14  A    between atoms: _33  and  _35
REMARK   15  A    between atoms: _35  and  _36
REMARK   16  A    between atoms: _35  and  _38
REMARK   17  A    between atoms: _38  and  _39
REMARK   18  A    between atoms: _44  and  _45
REMARK   19  A    between atoms: _47  and  _49
REMARK   20  A    between atoms: _49  and  _50
REMARK   21  A    between atoms: _49  and  _52
REMARK   22  A    between atoms: _52  and  _53
REMARK   23  A    between atoms: _53  and  _54
REMARK   24  A    between atoms: _57  and  _59
REMARK   25  A    between atoms: _59  and  _60
REMARK   26  A    between atoms: _59  and  _62
REMARK   27  A    between atoms: _62  and  _63
REMARK   28  A    between atoms: _66  and  _68
REMARK   29  A    between atoms: _68  and  _69
REMARK   30  A    between atoms: _71  and  _73
REMARK   31  A    between atoms: _73  and  _74
REMARK   32  A    between atoms: _73  and  _76
REMARK   33  A    between atoms: _76  and  _77
REMARK   34  A    between atoms: _82  and  _84
REMARK   35  A    between atoms: _84  and  _85
REMARK   36  A    between atoms: _84  and  _87
REMARK   37  A    between atoms: _87  and  _88
REMARK   38  A    between atoms: _88  and  _89
REMARK   39  A    between atoms: _91  and  _93
REMARK   40  A    between atoms: _93  and  _94
REMARK   41  A    between atoms: _93  and  _96
REMARK   42  A    between atoms: _96  and  _97
REMARK   43  A    between atoms: _107  and  _109
REMARK   44  A    between atoms: _109  and  _110
REMARK   45  A    between atoms: _109  and  _112
REMARK   46  A    between atoms: _112  and  _113
REMARK   47  A    between atoms: _113  and  _114
REMARK   48  A    between atoms: _119  and  _121
REMARK   49  A    between atoms: _121  and  _122
REMARK   50  A    between atoms: _121  and  _124
REMARK   51  A    between atoms: _124  and  _125
REMARK   52  A    between atoms: _128  and  _130
REMARK   53  A    between atoms: _130  and  _131
REMARK   54  A    between atoms: _130  and  _133
REMARK   55  A    between atoms: _133  and  _134
REMARK   56  A    between atoms: _144  and  _146
REMARK   57  A    between atoms: _146  and  _147
REMARK   58  A    between atoms: _146  and  _149
REMARK   59  A    between atoms: _149  and  _150
REMARK   60  A    between atoms: _152  and  _154
REMARK   61  A    between atoms: _154  and  _155
REMARK   62  A    between atoms: _154  and  _157
REMARK   63  A    between atoms: _157  and  _158
REMARK   64  A    between atoms: _163  and  _165
REMARK   65  A    between atoms: _165  and  _166
REMARK   66  A    between atoms: _165  and  _168
REMARK   67  A    between atoms: _171  and  _173
REMARK   68  A    between atoms: _173  and  _174
REMARK   69  A    between atoms: _173  and  _176
REMARK   70  A    between atoms: _178  and  _180
REMARK   71  A    between atoms: _180  and  _181
REMARK   72  A    between atoms: _180  and  _183
REMARK   73  A    between atoms: _183  and  _184
REMARK   74  A    between atoms: _189  and  _191
REMARK   75  A    between atoms: _191  and  _192
REMARK   76  A    between atoms: _195  and  _197
REMARK   77  A    between atoms: _197  and  _198
REMARK   78  A    between atoms: _197  and  _200
REMARK   79  A    between atoms: _200  and  _201
REMARK   80  A    between atoms: _203  and  _205
REMARK   81  A    between atoms: _205  and  _206
REMARK   82  A    between atoms: _209  and  _211
REMARK   83  A    between atoms: _211  and  _212
REMARK   84  A    between atoms: _211  and  _214
REMARK   85  A    between atoms: _214  and  _215
REMARK   86  A    between atoms: _225  and  _227
REMARK   87  A    between atoms: _227  and  _228
REMARK   88  A    between atoms: _227  and  _230
REMARK   89  A    between atoms: _230  and  _231
REMARK   90  A    between atoms: _234  and  _236
REMARK   91  A    between atoms: _236  and  _237
REMARK   92  A    between atoms: _236  and  _239
REMARK   93  A    between atoms: _239  and  _240
REMARK   94  A    between atoms: _245  and  _246
REMARK   95  A    between atoms: _248  and  _250
REMARK   96  A    between atoms: _250  and  _251
REMARK   97  A    between atoms: _250  and  _253
REMARK   98  A    between atoms: _253  and  _254
REMARK   99  A    between atoms: _254  and  _255
REMARK  100  A    between atoms: _255  and  _256
REMARK  101  A    between atoms: _265  and  _267
REMARK  102  A    between atoms: _267  and  _268
REMARK  103  A    between atoms: _267  and  _270
REMARK  104  A    between atoms: _270  and  _271
REMARK  105  A    between atoms: _274  and  _276
REMARK  106  A    between atoms: _276  and  _277
REMARK  107  A    between atoms: _276  and  _279
REMARK  108  A    between atoms: _279  and  _280
REMARK  109  A    between atoms: _280  and  _281
REMARK  110  A    between atoms: _281  and  _282
REMARK  111  A    between atoms: _282  and  _283
REMARK  112  A    between atoms: _287  and  _289
REMARK  113  A    between atoms: _289  and  _290
REMARK  114  A    between atoms: _289  and  _292
REMARK  115  A    between atoms: _292  and  _293
REMARK  116  A    between atoms: _293  and  _294
REMARK  117  A    between atoms: _299  and  _301
REMARK  118  A    between atoms: _301  and  _302
REMARK  119  A    between atoms: _301  and  _304
REMARK  120  A    between atoms: _304  and  _305
REMARK  121  A    between atoms: _310  and  _312
REMARK  122  A    between atoms: _312  and  _313
REMARK  123  A    between atoms: _312  and  _315
REMARK  124  A    between atoms: _315  and  _316
REMARK  125  A    between atoms: _319  and  _321
REMARK  126  A    between atoms: _321  and  _322
REMARK  127  A    between atoms: _321  and  _324
REMARK  128  A    between atoms: _324  and  _325
REMARK  129  A    between atoms: _325  and  _326
REMARK  130  A    between atoms: _329  and  _331
REMARK  131  A    between atoms: _331  and  _332
REMARK  132  A    between atoms: _331  and  _334
REMARK  133  A    between atoms: _334  and  _335
REMARK  134  A    between atoms: _338  and  _340
REMARK  135  A    between atoms: _340  and  _341
REMARK  136  A    between atoms: _340  and  _343
REMARK  137  A    between atoms: _346  and  _348
REMARK  138  A    between atoms: _348  and  _349
REMARK  139  A    between atoms: _348  and  _351
REMARK  140  A    between atoms: _354  and  _356
REMARK  141  A    between atoms: _356  and  _357
REMARK  142  A    between atoms: _360  and  _362
REMARK  143  A    between atoms: _362  and  _363
REMARK  144  A    between atoms: _362  and  _365
REMARK  145  A    between atoms: _365  and  _366
REMARK  146  A    between atoms: _371  and  _373
REMARK  147  A    between atoms: _384  and  _387
REMARK  148  A    between atoms: _387  and  _388
REMARK  149  A    between atoms: _388  and  _389
REMARK  150  A    between atoms: _394  and  _397
REMARK  151  A    between atoms: _397  and  _398
REMARK  152  A    between atoms: _398  and  _399
REMARK  153  A    between atoms: _408  and  _409
REMARK  154  A    between atoms: _417  and  _419
REMARK  155  A    between atoms: _419  and  _420
REMARK  156  A    between atoms: _419  and  _422
REMARK  157  A    between atoms: _422  and  _423
REMARK  158  A    between atoms: _426  and  _428
REMARK  159  A    between atoms: _428  and  _429
REMARK  160  A    between atoms: _428  and  _431
REMARK  161  A    between atoms: _431  and  _432
REMARK  162  A    between atoms: _437  and  _438
REMARK  163  A    between atoms: _440  and  _442
REMARK  164  A    between atoms: _442  and  _443
REMARK  165  A    between atoms: _442  and  _445
REMARK  166  A    between atoms: _445  and  _446
REMARK  167  A    between atoms: _452  and  _454
REMARK  168  A    between atoms: _454  and  _455
REMARK  169  A    between atoms: _454  and  _457
REMARK  170  A    between atoms: _457  and  _458
REMARK  171  A    between atoms: _463  and  _464
REMARK  172  A    between atoms: _466  and  _468
REMARK  173  A    between atoms: _468  and  _469
REMARK  174  A    between atoms: _468  and  _471
REMARK  175  A    between atoms: _471  and  _472
REMARK  176  A    between atoms: _472  and  _473
REMARK  177  A    between atoms: _473  and  _474
REMARK  178  A    between atoms: _483  and  _485
REMARK  179  A    between atoms: _485  and  _486
REMARK  180  A    between atoms: _485  and  _488
REMARK  181  A    between atoms: _488  and  _489
REMARK  182  A    between atoms: _489  and  _490
REMARK  183  A    between atoms: _493  and  _495
REMARK  184  A    between atoms: _495  and  _496
REMARK  185  A    between atoms: _498  and  _500
REMARK  186  A    between atoms: _500  and  _501
REMARK  187  A    between atoms: _500  and  _503
REMARK  188  A    between atoms: _503  and  _504
REMARK  189  A    between atoms: _510  and  _511
REMARK  190  A    between atoms: _516  and  _518
REMARK  191  A    between atoms: _518  and  _519
REMARK  192  A    between atoms: _521  and  _523
REMARK  193  A    between atoms: _523  and  _524
REMARK  194  A    between atoms: _523  and  _526
REMARK  195  A    between atoms: _526  and  _527
REMARK  196  A    between atoms: _533  and  _535
REMARK  197  A    between atoms: _535  and  _536
REMARK  198  A    between atoms: _535  and  _538
REMARK  199  A    between atoms: _538  and  _539
REMARK  200  A    between atoms: _544  and  _546
REMARK  201  A    between atoms: _546  and  _547
REMARK  202  A    between atoms: _546  and  _549
REMARK  203  A    between atoms: _549  and  _550
REMARK  204  A    between atoms: _550  and  _551
REMARK  205  A    between atoms: _551  and  _552
REMARK  206  A    between atoms: _552  and  ZN_793
REMARK  207  A    between atoms: _554  and  _556
REMARK  208  A    between atoms: _556  and  _557
REMARK  209  A    between atoms: _560  and  _562
REMARK  210  A    between atoms: _562  and  _563
REMARK  211  A    between atoms: _562  and  _565
REMARK  212  A    between atoms: _565  and  _566
REMARK  213  A    between atoms: _569  and  _571
REMARK  214  A    between atoms: _571  and  _572
REMARK  215  A    between atoms: _575  and  _577
REMARK  216  A    between atoms: _577  and  _578
REMARK  217  A    between atoms: _577  and  _580
REMARK  218  A    between atoms: _580  and  _581
REMARK  219  A    between atoms: _584  and  _586
REMARK  220  A    between atoms: _586  and  _587
REMARK  221  A    between atoms: _586  and  _589
REMARK  222  A    between atoms: _589  and  _590
REMARK  223  A    between atoms: _590  and  _591
REMARK  224  A    between atoms: _591  and  _592
REMARK  225  A    between atoms: _592  and  _593
REMARK  226  A    between atoms: _597  and  _599
REMARK  227  A    between atoms: _599  and  _600
REMARK  228  A    between atoms: _599  and  _602
REMARK  229  A    between atoms: _602  and  _603
REMARK  230  A    between atoms: _609  and  _611
REMARK  231  A    between atoms: _611  and  _612
REMARK  232  A    between atoms: _611  and  _614
REMARK  233  A    between atoms: _614  and  _615
REMARK  234  A    between atoms: _621  and  _623
REMARK  235  A    between atoms: _623  and  _624
REMARK  236  A    between atoms: _623  and  _626
REMARK  237  A    between atoms: _626  and  _627
REMARK  238  A    between atoms: _629  and  _631
REMARK  239  A    between atoms: _631  and  _632
REMARK  240  A    between atoms: _631  and  _634
REMARK  241  A    between atoms: _637  and  _639
REMARK  242  A    between atoms: _639  and  _640
REMARK  243  A    between atoms: _639  and  _642
REMARK  244  A    between atoms: _642  and  _643
REMARK  245  A    between atoms: _643  and  _644
REMARK  246  A    between atoms: _644  and  _645
REMARK  247  A    between atoms: _645  and  _646
REMARK  248  A    between atoms: _650  and  _652
REMARK  249  A    between atoms: _652  and  _653
REMARK  250  A    between atoms: _652  and  _655
REMARK  251  A    between atoms: _655  and  _656
REMARK  252  A    between atoms: _662  and  _664
REMARK  253  A    between atoms: _664  and  _665
REMARK  254  A    between atoms: _664  and  _667
REMARK  255  A    between atoms: _667  and  _668
REMARK  256  A    between atoms: _673  and  _675
REMARK  257  A    between atoms: _675  and  _676
REMARK  258  A    between atoms: _675  and  _678
REMARK  259  A    between atoms: _678  and  _679
REMARK  260  A    between atoms: _681  and  _683
REMARK  261  A    between atoms: _683  and  _684
REMARK  262  A    between atoms: _683  and  _686
REMARK  263  A    between atoms: _686  and  _687
REMARK  264  A    between atoms: _689  and  _691
REMARK  265  A    between atoms: _691  and  _692
REMARK  266  A    between atoms: _691  and  _694
REMARK  267  A    between atoms: _698  and  _699
REMARK  268  A    between atoms: _704  and  _706
REMARK  269  A    between atoms: _706  and  _707
REMARK  270  A    between atoms: _706  and  _709
REMARK  271  A    between atoms: _709  and  _710
REMARK  272  A    between atoms: _715  and  _716
REMARK  273  A    between atoms: _718  and  _720
REMARK  274  A    between atoms: _720  and  _721
REMARK  275  A    between atoms: _720  and  _723
REMARK  276  A    between atoms: _723  and  _724
REMARK  277  A    between atoms: _724  and  _725
REMARK  278  A    between atoms: _725  and  _726
REMARK  279  A    between atoms: _735  and  _737
REMARK  280  A    between atoms: _737  and  _738
REMARK  281  A    between atoms: _737  and  _740
REMARK  282  A    between atoms: _740  and  _741
REMARK  283  A    between atoms: _746  and  _747
REMARK  284  A    between atoms: _749  and  _751
REMARK  285  A    between atoms: _751  and  _752
REMARK  286  A    between atoms: _751  and  _754
REMARK  287  A    between atoms: _754  and  _755
REMARK  288  A    between atoms: _761  and  _763
REMARK  289  A    between atoms: _763  and  _764
REMARK  290  A    between atoms: _763  and  _766
REMARK  291  A    between atoms: _766  and  _767
REMARK  292  A    between atoms: _769  and  _771
REMARK  293  A    between atoms: _771  and  _772
REMARK  294  A    between atoms: _771  and  _774
REMARK  295  A    between atoms: _774  and  _775
REMARK  296  A    between atoms: _781  and  _783
REMARK  297  A    between atoms: _783  and  _784
REMARK  298  A    between atoms: _783  and  _786
REMARK  299  A    between atoms: _786  and  _787
REMARK  300  A    between atoms: _787  and  _788
REMARK                            x       y       z     vdW  Elec       q    Type
REMARK                         _______ _______ _______ _____ _____    ______ ____
ROOT
ATOM      1  CA  VAL A   1       2.597  -4.229 -28.990  0.00  0.00    +0.133 C 
ENDROOT
BRANCH   1   2
ATOM      2  CB  VAL A   1       3.720  -4.755 -28.069  0.00  0.00    +0.023 C 
ATOM      3  CG2 VAL A   1       3.166  -5.058 -26.682  0.00  0.00    +0.002 C 
ATOM      4  CG1 VAL A   1       4.372  -6.000 -28.684  0.00  0.00    +0.002 C 
ENDBRANCH   1   2
BRANCH   1   5
ATOM      5  N   VAL A   1       3.088  -3.811 -30.314  0.00  0.00    -0.239 NA
ATOM      6  H   VAL A   1       4.097  -3.909 -30.548  0.00  0.00    +0.142 HD
ENDBRANCH   1   5
BRANCH   1   7
ATOM      7  C   VAL A   1       1.810  -3.116 -28.300  0.00  0.00    +0.224 C 
ATOM      8  O   VAL A   1       0.669  -3.327 -27.873  0.00  0.00    -0.287 OA
ENDBRANCH   1   7
TORSDOF 3
REMARK  Name = ../refined-set-2016/4ca5/4ca5_pocket.pdb
REMARK  300 active torsions:
REMARK  status: ('A' for Active; 'I' for Inactive)
REMARK    1  A    between atoms: _1  and  _3
REMARK    2  A    between atoms: _3  and  _4
REMARK    3  A    between atoms: _3  and  _6
REMARK    4  A    between atoms: _6  and  _7
REMARK    5  A    between atoms: _12  and  _14
REMARK    6  A    between atoms: _14  and  _15
REMARK    7  A    between atoms: _14  and  _17
REMARK    8  A    between atoms: _17  and  _18
REMARK    9  A    between atoms: _23  and  _25
REMARK   10  A    between atoms: _25  and  _26
REMARK   11  A    between atoms: _25  and  _28
REMARK   12  A    between atoms: _28  and  _29
REMARK   13  A    between atoms: _29  and  _30
REMARK   14  A    between atoms: _33  and  _35
REMARK   15  A    between atoms: _35  and  _36
REMARK   16  A    between atoms: _35  and  _38
REMARK   17  A    between atoms: _38  and  _39
REMARK   18  A    between atoms: _44  and  _45
REMARK   19  A    between atoms: _47  and  _49
REMARK   20  A    between atoms: _49  and  _50
REMARK   21  A    between atoms: _49  and  _52
REMARK   22  A    between atoms: _52  and  _53
REMARK   23  A    between atoms: _53  and  _54
REMARK   24  A    between atoms: _57  and  _59
REMARK   25  A    between atoms: _59  and  _60
REMARK   26  A    between atoms: _59  and  _62
REMARK   27  A    between atoms: _62  and  _63
REMARK   28  A    between atoms: _66  and  _68
REMARK   29  A    between atoms: _68  and  _69
REMARK   30  A    between atoms: _71  and  _73
REMARK   31  A    between atoms: _73  and  _74
REMARK   32  A    between atoms: _73  and  _76
REMARK   33  A    between atoms: _76  and  _77
REMARK   34  A    between atoms: _82  and  _84
REMARK   35  A    between atoms: _84  and  _85
REMARK   36  A    between atoms: _84  and  _87
REMARK   37  A    between atoms: _87  and  _88
REMARK   38  A    between atoms: _88  and  _89
REMARK   39  A    between atoms: _91  and  _93
REMARK   40  A    between atoms: _93  and  _94
REMARK   41  A    between atoms: _93  and  _96
REMARK   42  A    between atoms: _96  and  _97
REMARK   43  A    between atoms: _107  and  _109
REMARK   44  A    between atoms: _109  and  _110
REMARK   45  A    between atoms: _109  and  _112
REMARK   46  A    between atoms: _112  and  _113
REMARK   47  A    between atoms: _113  and  _114
REMARK   48  A    between atoms: _119  and  _121
REMARK   49  A    between atoms: _121  and  _122
REMARK   50  A    between atoms: _121  and  _124
REMARK   51  A    between atoms: _124  and  _125
REMARK   52  A    between atoms: _128  and  _130
REMARK   53  A    between atoms: _130  and  _131
REMARK   54  A    between atoms: _130  and  _133
REMARK   55  A    between atoms: _133  and  _134
REMARK   56  A    between atoms: _144  and  _146
REMARK   57  A    between atoms: _146  and  _147
REMARK   58  A    between atoms: _146  and  _149
REMARK   59  A    between atoms: _149  and  _150
REMARK   60  A    between atoms: _152  and  _154
REMARK   61  A    between atoms: _154  and  _155
REMARK   62  A    between atoms: _154  and  _157
REMARK   63  A    between atoms: _157  and  _158
REMARK   64  A    between atoms: _163  and  _165
REMARK   65  A    between atoms: _165  and  _166
REMARK   66  A    between atoms: _165  and  _168
REMARK   67  A    between atoms: _171  and  _173
REMARK   68  A    between atoms: _173  and  _174
REMARK   69  A    between atoms: _173  and  _176
REMARK   70  A    between atoms: _178  and  _180
REMARK   71  A    between atoms: _180  and  _181
REMARK   72  A    between atoms: _180  and  _183
REMARK   73  A    between atoms: _183  and  _184
REMARK   74  A    between atoms: _189  and  _191
REMARK   75  A    between atoms: _191  and  _192
REMARK   76  A    between atoms: _195  and  _197
REMARK   77  A    between atoms: _197  and  _198
REMARK   78  A    between atoms: _197  and  _200
REMARK   79  A    between atoms: _200  and  _201
REMARK   80  A    between atoms: _203  and  _205
REMARK   81  A    between atoms: _205  and  _206
REMARK   82  A    between atoms: _209  and  _211
REMARK   83  A    between atoms: _211  and  _212
REMARK   84  A    between atoms: _211  and  _214
REMARK   85  A    between atoms: _214  and  _215
REMARK   86  A    between atoms: _225  and  _227
REMARK   87  A    between atoms: _227  and  _228
REMARK   88  A    between atoms: _227  and  _230
REMARK   89  A    between atoms: _230  and  _231
REMARK   90  A    between atoms: _234  and  _236
REMARK   91  A    between atoms: _236  and  _237
REMARK   92  A    between atoms: _236  and  _239
REMARK   93  A    between atoms: _239  and  _240
REMARK   94  A    between atoms: _245  and  _246
REMARK   95  A    between atoms: _248  and  _250
REMARK   96  A    between atoms: _250  and  _251
REMARK   97  A    between atoms: _250  and  _253
REMARK   98  A    between atoms: _253  and  _254
REMARK   99  A    between atoms: _254  and  _255
REMARK  100  A    between atoms: _255  and  _256
REMARK  101  A    between atoms: _265  and  _267
REMARK  102  A    between atoms: _267  and  _268
REMARK  103  A    between atoms: _267  and  _270
REMARK  104  A    between atoms: _270  and  _271
REMARK  105  A    between atoms: _274  and  _276
REMARK  106  A    between atoms: _276  and  _277
REMARK  107  A    between atoms: _276  and  _279
REMARK  108  A    between atoms: _279  and  _280
REMARK  109  A    between atoms: _280  and  _281
REMARK  110  A    between atoms: _281  and  _282
REMARK  111  A    between atoms: _282  and  _283
REMARK  112  A    between atoms: _287  and  _289
REMARK  113  A    between atoms: _289  and  _290
REMARK  114  A    between atoms: _289  and  _292
REMARK  115  A    between atoms: _292  and  _293
REMARK  116  A    between atoms: _293  and  _294
REMARK  117  A    between atoms: _299  and  _301
REMARK  118  A    between atoms: _301  and  _302
REMARK  119  A    between atoms: _301  and  _304
REMARK  120  A    between atoms: _304  and  _305
REMARK  121  A    between atoms: _310  and  _312
REMARK  122  A    between atoms: _312  and  _313
REMARK  123  A    between atoms: _312  and  _315
REMARK  124  A    between atoms: _315  and  _316
REMARK  125  A    between atoms: _319  and  _321
REMARK  126  A    between atoms: _321  and  _322
REMARK  127  A    between atoms: _321  and  _324
REMARK  128  A    between atoms: _324  and  _325
REMARK  129  A    between atoms: _325  and  _326
REMARK  130  A    between atoms: _329  and  _331
REMARK  131  A    between atoms: _331  and  _332
REMARK  132  A    between atoms: _331  and  _334
REMARK  133  A    between atoms: _334  and  _335
REMARK  134  A    between atoms: _338  and  _340
REMARK  135  A    between atoms: _340  and  _341
REMARK  136  A    between atoms: _340  and  _343
REMARK  137  A    between atoms: _346  and  _348
REMARK  138  A    between atoms: _348  and  _349
REMARK  139  A    between atoms: _348  and  _351
REMARK  140  A    between atoms: _354  and  _356
REMARK  141  A    between atoms: _356  and  _357
REMARK  142  A    between atoms: _360  and  _362
REMARK  143  A    between atoms: _362  and  _363
REMARK  144  A    between atoms: _362  and  _365
REMARK  145  A    between atoms: _365  and  _366
REMARK  146  A    between atoms: _371  and  _373
REMARK  147  A    between atoms: _384  and  _387
REMARK  148  A    between atoms: _387  and  _388
REMARK  149  A    between atoms: _388  and  _389
REMARK  150  A    between atoms: _394  and  _397
REMARK  151  A    between atoms: _397  and  _398
REMARK  152  A    between atoms: _398  and  _399
REMARK  153  A    between atoms: _408  and  _409
REMARK  154  A    between atoms: _417  and  _419
REMARK  155  A    between atoms: _419  and  _420
REMARK  156  A    between atoms: _419  and  _422
REMARK  157  A    between atoms: _422  and  _423
REMARK  158  A    between atoms: _426  and  _428
REMARK  159  A    between atoms: _428  and  _429
REMARK  160  A    between atoms: _428  and  _431
REMARK  161  A    between atoms: _431  and  _432
REMARK  162  A    between atoms: _437  and  _438
REMARK  163  A    between atoms: _440  and  _442
REMARK  164  A    between atoms: _442  and  _443
REMARK  165  A    between atoms: _442  and  _445
REMARK  166  A    between atoms: _445  and  _446
REMARK  167  A    between atoms: _452  and  _454
REMARK  168  A    between atoms: _454  and  _455
REMARK  169  A    between atoms: _454  and  _457
REMARK  170  A    between atoms: _457  and  _458
REMARK  171  A    between atoms: _463  and  _464
REMARK  172  A    between atoms: _466  and  _468
REMARK  173  A    between atoms: _468  and  _469
REMARK  174  A    between atoms: _468  and  _471
REMARK  175  A    between atoms: _471  and  _472
REMARK  176  A    between atoms: _472  and  _473
REMARK  177  A    between atoms: _473  and  _474
REMARK  178  A    between atoms: _483  and  _485
REMARK  179  A    between atoms: _485  and  _486
REMARK  180  A    between atoms: _485  and  _488
REMARK  181  A    between atoms: _488  and  _489
REMARK  182  A    between atoms: _489  and  _490
REMARK  183  A    between atoms: _493  and  _495
REMARK  184  A    between atoms: _495  and  _496
REMARK  185  A    between atoms: _498  and  _500
REMARK  186  A    between atoms: _500  and  _501
REMARK  187  A    between atoms: _500  and  _503
REMARK  188  A    between atoms: _503  and  _504
REMARK  189  A    between atoms: _510  and  _511
REMARK  190  A    between atoms: _516  and  _518
REMARK  191  A    between atoms: _518  and  _519
REMARK  192  A    between atoms: _521  and  _523
REMARK  193  A    between atoms: _523  and  _524
REMARK  194  A    between atoms: _523  and  _526
REMARK  195  A    between atoms: _526  and  _527
REMARK  196  A    between atoms: _533  and  _535
REMARK  197  A    between atoms: _535  and  _536
REMARK  198  A    between atoms: _535  and  _538
REMARK  199  A    between atoms: _538  and  _539
REMARK  200  A    between atoms: _544  and  _546
REMARK  201  A    between atoms: _546  and  _547
REMARK  202  A    between atoms: _546  and  _549
REMARK  203  A    between atoms: _549  and  _550
REMARK  204  A    between atoms: _550  and  _551
REMARK  205  A    between atoms: _551  and  _552
REMARK  206  A    between atoms: _552  and  ZN_793
REMARK  207  A    between atoms: _554  and  _556
REMARK  208  A    between atoms: _556  and  _557
REMARK  209  A    between atoms: _560  and  _562
REMARK  210  A    between atoms: _562  and  _563
REMARK  211  A    between atoms: _562  and  _565
REMARK  212  A    between atoms: _565  and  _566
REMARK  213  A    between atoms: _569  and  _571
REMARK  214  A    between atoms: _571  and  _572
REMARK  215  A    between atoms: _575  and  _577
REMARK  216  A    between atoms: _577  and  _578
REMARK  217  A    between atoms: _577  and  _580
REMARK  218  A    between atoms: _580  and  _581
REMARK  219  A    between atoms: _584  and  _586
REMARK  220  A    between atoms: _586  and  _587
REMARK  221  A    between atoms: _586  and  _589
REMARK  222  A    between atoms: _589  and  _590
REMARK  223  A    between atoms: _590  and  _591
REMARK  224  A    between atoms: _591  and  _592
REMARK  225  A    between atoms: _592  and  _593
REMARK  226  A    between atoms: _597  and  _599
REMARK  227  A    between atoms: _599  and  _600
REMARK  228  A    between atoms: _599  and  _602
REMARK  229  A    between atoms: _602  and  _603
REMARK  230  A    between atoms: _609  and  _611
REMARK  231  A    between atoms: _611  and  _612
REMARK  232  A    between atoms: _611  and  _614
REMARK  233  A    between atoms: _614  and  _615
REMARK  234  A    between atoms: _621  and  _623
REMARK  235  A    between atoms: _623  and  _624
REMARK  236  A    between atoms: _623  and  _626
REMARK  237  A    between atoms: _626  and  _627
REMARK  238  A    between atoms: _629  and  _631
REMARK  239  A    between atoms: _631  and  _632
REMARK  240  A    between atoms: _631  and  _634
REMARK  241  A    between atoms: _637  and  _639
REMARK  242  A    between atoms: _639  and  _640
REMARK  243  A    between atoms: _639  and  _642
REMARK  244  A    between atoms: _642  and  _643
REMARK  245  A    between atoms: _643  and  _644
REMARK  246  A    between atoms: _644  and  _645
REMARK  247  A    between atoms: _645  and  _646
REMARK  248  A    between atoms: _650  and  _652
REMARK  249  A    between atoms: _652  and  _653
REMARK  250  A    between atoms: _652  and  _655
REMARK  251  A    between atoms: _655  and  _656
REMARK  252  A    between atoms: _662  and  _664
REMARK  253  A    between atoms: _664  and  _665
REMARK  254  A    between atoms: _664  and  _667
REMARK  255  A    between atoms: _667  and  _668
REMARK  256  A    between atoms: _673  and  _675
REMARK  257  A    between atoms: _675  and  _676
REMARK  258  A    between atoms: _675  and  _678
REMARK  259  A    between atoms: _678  and  _679
REMARK  260  A    between atoms: _681  and  _683
REMARK  261  A    between atoms: _683  and  _684
REMARK  262  A    between atoms: _683  and  _686
REMARK  263  A    between atoms: _686  and  _687
REMARK  264  A    between atoms: _689  and  _691
REMARK  265  A    between atoms: _691  and  _692
REMARK  266  A    between atoms: _691  and  _694
REMARK  267  A    between atoms: _698  and  _699
REMARK  268  A    between atoms: _704  and  _706
REMARK  269  A    between atoms: _706  and  _707
REMARK  270  A    between atoms: _706  and  _709
REMARK  271  A    between atoms: _709  and  _710
REMARK  272  A    between atoms: _715  and  _716
REMARK  273  A    between atoms: _718  and  _720
REMARK  274  A    between atoms: _720  and  _721
REMARK  275  A    between atoms: _720  and  _723
REMARK  276  A    between atoms: _723  and  _724
REMARK  277  A    between atoms: _724  and  _725
REMARK  278  A    between atoms: _725  and  _726
REMARK  279  A    between atoms: _735  and  _737
REMARK  280  A    between atoms: _737  and  _738
REMARK  281  A    between atoms: _737  and  _740
REMARK  282  A    between atoms: _740  and  _741
REMARK  283  A    between atoms: _746  and  _747
REMARK  284  A    between atoms: _749  and  _751
REMARK  285  A    between atoms: _751  and  _752
REMARK  286  A    between atoms: _751  and  _754
REMARK  287  A    between atoms: _754  and  _755
REMARK  288  A    between atoms: _761  and  _763
REMARK  289  A    between atoms: _763  and  _764
REMARK  290  A    between atoms: _763  and  _766
REMARK  291  A    between atoms: _766  and  _767
REMARK  292  A    between atoms: _769  and  _771
REMARK  293  A    between atoms: _771  and  _772
REMARK  294  A    between atoms: _771  and  _774
REMARK  295  A    between atoms: _774  and  _775
REMARK  296  A    between atoms: _781  and  _783
REMARK  297  A    between atoms: _783  and  _784
REMARK  298  A    between atoms: _783  and  _786
REMARK  299  A    between atoms: _786  and  _787
REMARK  300  A    between atoms: _787  and  _788
REMARK                            x       y       z     vdW  Elec       q    Type
REMARK                         _______ _______ _______ _____ _____    ______ ____
ROOT
ATOM      1  CA  PHE A   2       5.280 -11.655 -20.738  0.00  0.00    +0.153 C 
ENDROOT
BRANCH   1   3
ATOM      2  C   LYS A   1       3.856 -11.817 -22.750  0.00  0.00    +0.238 C 
ATOM      3  N   PHE A   2       4.999 -12.093 -22.121  0.00  0.00    -0.297 N 
ATOM      4  H   PHE A   2       5.725 -12.641 -22.626  0.00  0.00    +0.150 HD
ATOM      5  O   LYS A   1       2.996 -11.038 -22.311  0.00  0.00    -0.274 OA
BRANCH   2   6
ATOM      6  CA  LYS A   1       3.653 -12.495 -24.086  0.00  0.00    +0.145 C 
BRANCH   6   7
ATOM      7  N   LYS A   1       2.427 -13.295 -24.003  0.00  0.00    -0.238 NA
ATOM      8  H   LYS A   1       1.521 -12.803 -23.868  0.00  0.00    +0.142 HD
ENDBRANCH   6   7
BRANCH   6   9
ATOM      9  CB  LYS A   1       3.535 -11.448 -25.208  0.00  0.00    +0.026 C 
BRANCH   9  10
ATOM     10  CG  LYS A   1       4.688 -10.432 -25.288  0.00  0.00    -0.000 C 
BRANCH  10  11
ATOM     11  CD  LYS A   1       6.013 -11.126 -25.595  0.00  0.00    -0.024 C 
BRANCH  11  12
ATOM     12  CE  LYS A   1       7.201 -10.189 -25.421  0.00  0.00    -0.086 C 
BRANCH  12  13
ATOM     13  NZ  LYS A   1       8.485 -10.946 -25.530  0.00  0.00    +0.380 N 
ATOM     14  HZ1 LYS A   1       8.519 -11.677 -24.791  0.00  0.00    -0.089 HD
ATOM     15  HZ2 LYS A   1       9.284 -10.291 -25.409  0.00  0.00    -0.089 HD
ATOM     16  HZ3 LYS A   1       8.543 -11.395 -26.466  0.00  0.00    -0.089 HD
ENDBRANCH  12  13
ENDBRANCH  11  12
ENDBRANCH  10  11
ENDBRANCH   9  10
ENDBRANCH   6   9
ENDBRANCH   2   6
ENDBRANCH   1   3
BRANCH   1  17
ATOM     17  C   PHE A   2       4.756 -10.272 -20.343  0.00  0.00    +0.241 C 
ATOM     18  O   PHE A   2       4.121 -10.118 -19.293  0.00  0.00    -0.273 OA
ATOM     19  N   HIS A   3       5.064  -9.275 -21.163  0.00  0.00    -0.298 N 
ATOM     20  H   HIS A   3       5.482  -9.504 -22.087  0.00  0.00    +0.150 HD
BRANCH  19  21
ATOM     21  CA  HIS A   3       4.842  -7.860 -20.825  0.00  0.00    +0.143 C 
BRANCH  21  22
ATOM     22  C   HIS A   3       3.389  -7.476 -20.688  0.00  0.00    +0.227 C 
ATOM     23  O   HIS A   3       3.075  -6.478 -20.043  0.00  0.00    -0.286 OA
ENDBRANCH  21  22
BRANCH  21  24
ATOM     24  CB  HIS A   3       5.529  -6.950 -21.850  0.00  0.00    +0.075 C 
BRANCH  24  25
ATOM     25  CG  HIS A   3       6.995  -7.186 -21.929  0.00  0.00    +0.082 A 
ATOM     26  CD2 HIS A   3       8.042  -6.445 -21.501  0.00  0.00    +0.115 A 
ATOM     27  NE2 HIS A   3       9.181  -7.156 -21.782  0.00  0.00    -0.221 NA
ATOM     28  CE1 HIS A   3       8.843  -8.313 -22.328  0.00  0.00    +0.199 A 
ATOM     29  ND1 HIS A   3       7.524  -8.361 -22.415  0.00  0.00    -0.227 NA
ENDBRANCH  24  25
ENDBRANCH  21  24
ENDBRANCH  19  21
ENDBRANCH   1  17
BRANCH   1  30
ATOM     30  CB  PHE A   2       6.797 -11.710 -20.470  0.00  0.00    +0.055 C 
BRANCH  30  31
ATOM     31  CG  PHE A   2       7.198 -11.128 -19.128  0.00  0.00    -0.020 A 
ATOM     32  CD2 PHE A   2       7.098 -11.891 -17.966  0.00  0.00    -0.004 A 
ATOM     33  CE2 PHE A   2       7.469 -11.357 -16.729  0.00  0.00    -0.000 A 
ATOM     34  CZ  PHE A   2       7.950 -10.054 -16.651  0.00  0.00    -0.000 A 
ATOM     35  CE1 PHE A   2       8.039  -9.275 -17.806  0.00  0.00    -0.000 A 
ATOM     36  CD1 PHE A   2       7.662  -9.815 -19.032  0.00  0.00    -0.004 A 
ENDBRANCH  30  31
ENDBRANCH   1  30
TORSDOF 15
REMARK  Name = ../refined-set-2016/4ca5/4ca5_pocket.pdb
REMARK  300 active torsions:
REMARK  status: ('A' for Active; 'I' for Inactive)
REMARK    1  A    between atoms: _1  and  _3
REMARK    2  A    between atoms: _3  and  _4
REMARK    3  A    between atoms: _3  and  _6
REMARK    4  A    between atoms: _6  and  _7
REMARK    5  A    between atoms: _12  and  _14
REMARK    6  A    between atoms: _14  and  _15
REMARK    7  A    between atoms: _14  and  _17
REMARK    8  A    between atoms: _17  and  _18
REMARK    9  A    between atoms: _23  and  _25
REMARK   10  A    between atoms: _25  and  _26
REMARK   11  A    between atoms: _25  and  _28
REMARK   12  A    between atoms: _28  and  _29
REMARK   13  A    between atoms: _29  and  _30
REMARK   14  A    between atoms: _33  and  _35
REMARK   15  A    between atoms: _35  and  _36
REMARK   16  A    between atoms: _35  and  _38
REMARK   17  A    between atoms: _38  and  _39
REMARK   18  A    between atoms: _44  and  _45
REMARK   19  A    between atoms: _47  and  _49
REMARK   20  A    between atoms: _49  and  _50
REMARK   21  A    between atoms: _49  and  _52
REMARK   22  A    between atoms: _52  and  _53
REMARK   23  A    between atoms: _53  and  _54
REMARK   24  A    between atoms: _57  and  _59
REMARK   25  A    between atoms: _59  and  _60
REMARK   26  A    between atoms: _59  and  _62
REMARK   27  A    between atoms: _62  and  _63
REMARK   28  A    between atoms: _66  and  _68
REMARK   29  A    between atoms: _68  and  _69
REMARK   30  A    between atoms: _71  and  _73
REMARK   31  A    between atoms: _73  and  _74
REMARK   32  A    between atoms: _73  and  _76
REMARK   33  A    between atoms: _76  and  _77
REMARK   34  A    between atoms: _82  and  _84
REMARK   35  A    between atoms: _84  and  _85
REMARK   36  A    between atoms: _84  and  _87
REMARK   37  A    between atoms: _87  and  _88
REMARK   38  A    between atoms: _88  and  _89
REMARK   39  A    between atoms: _91  and  _93
REMARK   40  A    between atoms: _93  and  _94
REMARK   41  A    between atoms: _93  and  _96
REMARK   42  A    between atoms: _96  and  _97
REMARK   43  A    between atoms: _107  and  _109
REMARK   44  A    between atoms: _109  and  _110
REMARK   45  A    between atoms: _109  and  _112
REMARK   46  A    between atoms: _112  and  _113
REMARK   47  A    between atoms: _113  and  _114
REMARK   48  A    between atoms: _119  and  _121
REMARK   49  A    between atoms: _121  and  _122
REMARK   50  A    between atoms: _121  and  _124
REMARK   51  A    between atoms: _124  and  _125
REMARK   52  A    between atoms: _128  and  _130
REMARK   53  A    between atoms: _130  and  _131
REMARK   54  A    between atoms: _130  and  _133
REMARK   55  A    between atoms: _133  and  _134
REMARK   56  A    between atoms: _144  and  _146
REMARK   57  A    between atoms: _146  and  _147
REMARK   58  A    between atoms: _146  and  _149
REMARK   59  A    between atoms: _149  and  _150
REMARK   60  A    between atoms: _152  and  _154
REMARK   61  A    between atoms: _154  and  _155
REMARK   62  A    between atoms: _154  and  _157
REMARK   63  A    between atoms: _157  and  _158
REMARK   64  A    between atoms: _163  and  _165
REMARK   65  A    between atoms: _165  and  _166
REMARK   66  A    between atoms: _165  and  _168
REMARK   67  A    between atoms: _171  and  _173
REMARK   68  A    between atoms: _173  and  _174
REMARK   69  A    between atoms: _173  and  _176
REMARK   70  A    between atoms: _178  and  _180
REMARK   71  A    between atoms: _180  and  _181
REMARK   72  A    between atoms: _180  and  _183
REMARK   73  A    between atoms: _183  and  _184
REMARK   74  A    between atoms: _189  and  _191
REMARK   75  A    between atoms: _191  and  _192
REMARK   76  A    between atoms: _195  and  _197
REMARK   77  A    between atoms: _197  and  _198
REMARK   78  A    between atoms: _197  and  _200
REMARK   79  A    between atoms: _200  and  _201
REMARK   80  A    between atoms: _203  and  _205
REMARK   81  A    between atoms: _205  and  _206
REMARK   82  A    between atoms: _209  and  _211
REMARK   83  A    between atoms: _211  and  _212
REMARK   84  A    between atoms: _211  and  _214
REMARK   85  A    between atoms: _214  and  _215
REMARK   86  A    between atoms: _225  and  _227
REMARK   87  A    between atoms: _227  and  _228
REMARK   88  A    between atoms: _227  and  _230
REMARK   89  A    between atoms: _230  and  _231
REMARK   90  A    between atoms: _234  and  _236
REMARK   91  A    between atoms: _236  and  _237
REMARK   92  A    between atoms: _236  and  _239
REMARK   93  A    between atoms: _239  and  _240
REMARK   94  A    between atoms: _245  and  _246
REMARK   95  A    between atoms: _248  and  _250
REMARK   96  A    between atoms: _250  and  _251
REMARK   97  A    between atoms: _250  and  _253
REMARK   98  A    between atoms: _253  and  _254
REMARK   99  A    between atoms: _254  and  _255
REMARK  100  A    between atoms: _255  and  _256
REMARK  101  A    between atoms: _265  and  _267
REMARK  102  A    between atoms: _267  and  _268
REMARK  103  A    between atoms: _267  and  _270
REMARK  104  A    between atoms: _270  and  _271
REMARK  105  A    between atoms: _274  and  _276
REMARK  106  A    between atoms: _276  and  _277
REMARK  107  A    between atoms: _276  and  _279
REMARK  108  A    between atoms: _279  and  _280
REMARK  109  A    between atoms: _280  and  _281
REMARK  110  A    between atoms: _281  and  _282
REMARK  111  A    between atoms: _282  and  _283
REMARK  112  A    between atoms: _287  and  _289
REMARK  113  A    between atoms: _289  and  _290
REMARK  114  A    between atoms: _289  and  _292
REMARK  115  A    between atoms: _292  and  _293
REMARK  116  A    between atoms: _293  and  _294
REMARK  117  A    between atoms: _299  and  _301
REMARK  118  A    between atoms: _301  and  _302
REMARK  119  A    between atoms: _301  and  _304
REMARK  120  A    between atoms: _304  and  _305
REMARK  121  A    between atoms: _310  and  _312
REMARK  122  A    between atoms: _312  and  _313
REMARK  123  A    between atoms: _312  and  _315
REMARK  124  A    between atoms: _315  and  _316
REMARK  125  A    between atoms: _319  and  _321
REMARK  126  A    between atoms: _321  and  _322
REMARK  127  A    between atoms: _321  and  _324
REMARK  128  A    between atoms: _324  and  _325
REMARK  129  A    between atoms: _325  and  _326
REMARK  130  A    between atoms: _329  and  _331
REMARK  131  A    between atoms: _331  and  _332
REMARK  132  A    between atoms: _331  and  _334
REMARK  133  A    between atoms: _334  and  _335
REMARK  134  A    between atoms: _338  and  _340
REMARK  135  A    between atoms: _340  and  _341
REMARK  136  A    between atoms: _340  and  _343
REMARK  137  A    between atoms: _346  and  _348
REMARK  138  A    between atoms: _348  and  _349
REMARK  139  A    between atoms: _348  and  _351
REMARK  140  A    between atoms: _354  and  _356
REMARK  141  A    between atoms: _356  and  _357
REMARK  142  A    between atoms: _360  and  _362
REMARK  143  A    between atoms: _362  and  _363
REMARK  144  A    between atoms: _362  and  _365
REMARK  145  A    between atoms: _365  and  _366
REMARK  146  A    between atoms: _371  and  _373
REMARK  147  A    between atoms: _384  and  _387
REMARK  148  A    between atoms: _387  and  _388
REMARK  149  A    between atoms: _388  and  _389
REMARK  150  A    between atoms: _394  and  _397
REMARK  151  A    between atoms: _397  and  _398
REMARK  152  A    between atoms: _398  and  _399
REMARK  153  A    between atoms: _408  and  _409
REMARK  154  A    between atoms: _417  and  _419
REMARK  155  A    between atoms: _419  and  _420
REMARK  156  A    between atoms: _419  and  _422
REMARK  157  A    between atoms: _422  and  _423
REMARK  158  A    between atoms: _426  and  _428
REMARK  159  A    between atoms: _428  and  _429
REMARK  160  A    between atoms: _428  and  _431
REMARK  161  A    between atoms: _431  and  _432
REMARK  162  A    between atoms: _437  and  _438
REMARK  163  A    between atoms: _440  and  _442
REMARK  164  A    between atoms: _442  and  _443
REMARK  165  A    between atoms: _442  and  _445
REMARK  166  A    between atoms: _445  and  _446
REMARK  167  A    between atoms: _452  and  _454
REMARK  168  A    between atoms: _454  and  _455
REMARK  169  A    between atoms: _454  and  _457
REMARK  170  A    between atoms: _457  and  _458
REMARK  171  A    between atoms: _463  and  _464
REMARK  172  A    between atoms: _466  and  _468
REMARK  173  A    between atoms: _468  and  _469
REMARK  174  A    between atoms: _468  and  _471
REMARK  175  A    between atoms: _471  and  _472
REMARK  176  A    between atoms: _472  and  _473
REMARK  177  A    between atoms: _473  and  _474
REMARK  178  A    between atoms: _483  and  _485
REMARK  179  A    between atoms: _485  and  _486
REMARK  180  A    between atoms: _485  and  _488
REMARK  181  A    between atoms: _488  and  _489
REMARK  182  A    between atoms: _489  and  _490
REMARK  183  A    between atoms: _493  and  _495
REMARK  184  A    between atoms: _495  and  _496
REMARK  185  A    between atoms: _498  and  _500
REMARK  186  A    between atoms: _500  and  _501
REMARK  187  A    between atoms: _500  and  _503
REMARK  188  A    between atoms: _503  and  _504
REMARK  189  A    between atoms: _510  and  _511
REMARK  190  A    between atoms: _516  and  _518
REMARK  191  A    between atoms: _518  and  _519
REMARK  192  A    between atoms: _521  and  _523
REMARK  193  A    between atoms: _523  and  _524
REMARK  194  A    between atoms: _523  and  _526
REMARK  195  A    between atoms: _526  and  _527
REMARK  196  A    between atoms: _533  and  _535
REMARK  197  A    between atoms: _535  and  _536
REMARK  198  A    between atoms: _535  and  _538
REMARK  199  A    between atoms: _538  and  _539
REMARK  200  A    between atoms: _544  and  _546
REMARK  201  A    between atoms: _546  and  _547
REMARK  202  A    between atoms: _546  and  _549
REMARK  203  A    between atoms: _549  and  _550
REMARK  204  A    between atoms: _550  and  _551
REMARK  205  A    between atoms: _551  and  _552
REMARK  206  A    between atoms: _552  and  ZN_793
REMARK  207  A    between atoms: _554  and  _556
REMARK  208  A    between atoms: _556  and  _557
REMARK  209  A    between atoms: _560  and  _562
REMARK  210  A    between atoms: _562  and  _563
REMARK  211  A    between atoms: _562  and  _565
REMARK  212  A    between atoms: _565  and  _566
REMARK  213  A    between atoms: _569  and  _571
REMARK  214  A    between atoms: _571  and  _572
REMARK  215  A    between atoms: _575  and  _577
REMARK  216  A    between atoms: _577  and  _578
REMARK  217  A    between atoms: _577  and  _580
REMARK  218  A    between atoms: _580  and  _581
REMARK  219  A    between atoms: _584  and  _586
REMARK  220  A    between atoms: _586  and  _587
REMARK  221  A    between atoms: _586  and  _589
REMARK  222  A    between atoms: _589  and  _590
REMARK  223  A    between atoms: _590  and  _591
REMARK  224  A    between atoms: _591  and  _592
REMARK  225  A    between atoms: _592  and  _593
REMARK  226  A    between atoms: _597  and  _599
REMARK  227  A    between atoms: _599  and  _600
REMARK  228  A    between atoms: _599  and  _602
REMARK  229  A    between atoms: _602  and  _603
REMARK  230  A    between atoms: _609  and  _611
REMARK  231  A    between atoms: _611  and  _612
REMARK  232  A    between atoms: _611  and  _614
REMARK  233  A    between atoms: _614  and  _615
REMARK  234  A    between atoms: _621  and  _623
REMARK  235  A    between atoms: _623  and  _624
REMARK  236  A    between atoms: _623  and  _626
REMARK  237  A    between atoms: _626  and  _627
REMARK  238  A    between atoms: _629  and  _631
REMARK  239  A    between atoms: _631  and  _632
REMARK  240  A    between atoms: _631  and  _634
REMARK  241  A    between atoms: _637  and  _639
REMARK  242  A    between atoms: _639  and  _640
REMARK  243  A    between atoms: _639  and  _642
REMARK  244  A    between atoms: _642  and  _643
REMARK  245  A    between atoms: _643  and  _644
REMARK  246  A    between atoms: _644  and  _645
REMARK  247  A    between atoms: _645  and  _646
REMARK  248  A    between atoms: _650  and  _652
REMARK  249  A    between atoms: _652  and  _653
REMARK  250  A    between atoms: _652  and  _655
REMARK  251  A    between atoms: _655  and  _656
REMARK  252  A    between atoms: _662  and  _664
REMARK  253  A    between atoms: _664  and  _665
REMARK  254  A    between atoms: _664  and  _667
REMARK  255  A    between atoms: _667  and  _668
REMARK  256  A    between atoms: _673  and  _675
REMARK  257  A    between atoms: _675  and  _676
REMARK  258  A    between atoms: _675  and  _678
REMARK  259  A    between atoms: _678  and  _679
REMARK  260  A    between atoms: _681  and  _683
REMARK  261  A    between atoms: _683  and  _684
REMARK  262  A    between atoms: _683  and  _686
REMARK  263  A    between atoms: _686  and  _687
REMARK  264  A    between atoms: _689  and  _691
REMARK  265  A    between atoms: _691  and  _692
REMARK  266  A    between atoms: _691  and  _694
REMARK  267  A    between atoms: _698  and  _699
REMARK  268  A    between atoms: _704  and  _706
REMARK  269  A    between atoms: _706  and  _707
REMARK  270  A    between atoms: _706  and  _709
REMARK  271  A    between atoms: _709  and  _710
REMARK  272  A    between atoms: _715  and  _716
REMARK  273  A    between atoms: _718  and  _720
REMARK  274  A    between atoms: _720  and  _721
REMARK  275  A    between atoms: _720  and  _723
REMARK  276  A    between atoms: _723  and  _724
REMARK  277  A    between atoms: _724  and  _725
REMARK  278  A    between atoms: _725  and  _726
REMARK  279  A    between atoms: _735  and  _737
REMARK  280  A    between atoms: _737  and  _738
REMARK  281  A    between atoms: _737  and  _740
REMARK  282  A    between atoms: _740  and  _741
REMARK  283  A    between atoms: _746  and  _747
REMARK  284  A    between atoms: _749  and  _751
REMARK  285  A    between atoms: _751  and  _752
REMARK  286  A    between atoms: _751  and  _754
REMARK  287  A    between atoms: _754  and  _755
REMARK  288  A    between atoms: _761  and  _763
REMARK  289  A    between atoms: _763  and  _764
REMARK  290  A    between atoms: _763  and  _766
REMARK  291  A    between atoms: _766  and  _767
REMARK  292  A    between atoms: _769  and  _771
REMARK  293  A    between atoms: _771  and  _772
REMARK  294  A    between atoms: _771  and  _774
REMARK  295  A    between atoms: _774  and  _775
REMARK  296  A    between atoms: _781  and  _783
REMARK  297  A    between atoms: _783  and  _784
REMARK  298  A    between atoms: _783  and  _786
REMARK  299  A    between atoms: _786  and  _787
REMARK  300  A    between atoms: _787  and  _788
REMARK                            x       y       z     vdW  Elec       q    Type
REMARK                         _______ _______ _______ _____ _____    ______ ____
ROOT
ATOM      1  C   VAL A   3       5.135  -2.988 -19.944  0.00  0.00    +0.244 C 
ATOM      2  N   PRO A   4       5.262  -1.653 -20.022  0.00  0.00    -0.272 N 
ATOM      3  CD  PRO A   4       5.436  -0.738 -18.877  0.00  0.00    +0.094 C 
ATOM      4  CG  PRO A   4       5.061   0.593 -19.448  0.00  0.00    +0.024 C 
ATOM      5  CB  PRO A   4       5.516   0.514 -20.877  0.00  0.00    +0.031 C 
ATOM      6  CA  PRO A   4       5.161  -0.920 -21.291  0.00  0.00    +0.152 C 
ATOM      7  O   VAL A   3       4.883  -3.693 -20.917  0.00  0.00    -0.273 OA
ENDROOT
BRANCH   6   8
ATOM      8  C   PRO A   4       6.180  -1.448 -22.296  0.00  0.00    +0.241 C 
ATOM      9  O   PRO A   4       7.275  -1.875 -21.898  0.00  0.00    -0.273 OA
ATOM     10  N   TYR A   5       5.827  -1.427 -23.578  0.00  0.00    -0.298 N 
ATOM     11  H   TYR A   5       4.942  -0.958 -23.858  0.00  0.00    +0.150 HD
BRANCH  10  12
ATOM     12  CA  TYR A   5       6.667  -2.056 -24.603  0.00  0.00    +0.141 C 
BRANCH  12  13
ATOM     13  C   TYR A   5       7.360  -1.109 -25.589  0.00  0.00    +0.227 C 
ATOM     14  O   TYR A   5       8.372  -1.483 -26.184  0.00  0.00    -0.286 OA
ENDBRANCH  12  13
BRANCH  12  15
ATOM     15  CB  TYR A   5       5.874  -3.113 -25.401  0.00  0.00    +0.054 C 
BRANCH  15  16
ATOM     16  CG  TYR A   5       6.762  -4.261 -25.866  0.00  0.00    -0.020 A 
ATOM     17  CD2 TYR A   5       7.090  -5.295 -24.989  0.00  0.00    -0.001 A 
ATOM     18  CE2 TYR A   5       7.918  -6.346 -25.377  0.00  0.00    +0.036 A 
ATOM     19  CZ  TYR A   5       8.446  -6.359 -26.663  0.00  0.00    +0.134 A 
ATOM     20  CE1 TYR A   5       8.148  -5.330 -27.557  0.00  0.00    +0.036 A 
ATOM     21  CD1 TYR A   5       7.316  -4.284 -27.153  0.00  0.00    -0.001 A 
BRANCH  19  22
ATOM     22  OH  TYR A   5       9.269  -7.417 -27.029  0.00  0.00    -0.506 OA
ATOM     23  HH  TYR A   5       9.361  -8.041 -26.266  0.00  0.00    +0.292 HD
ENDBRANCH  19  22
ENDBRANCH  15  16
ENDBRANCH  12  15
ENDBRANCH  10  12
ENDBRANCH   6   8
BRANCH   1  24
ATOM     24  CA  VAL A   3       5.286  -3.627 -18.567  0.00  0.00    +0.149 C 
BRANCH  24  27
ATOM     25  C   SER A   2       3.148  -3.907 -17.419  0.00  0.00    +0.243 C 
ATOM     26  O   SER A   2       3.323  -2.917 -16.702  0.00  0.00    -0.273 OA
ATOM     27  N   VAL A   3       4.037  -4.333 -18.315  0.00  0.00    -0.297 N 
ATOM     28  H   VAL A   3       3.832  -5.199 -18.853  0.00  0.00    +0.150 HD
BRANCH  25  29
ATOM     29  CA  SER A   2       1.874  -4.732 -17.303  0.00  0.00    +0.178 C 
BRANCH  29  32
ATOM     30  C   SER A   1       2.993  -6.663 -16.275  0.00  0.00    +0.241 C 
ATOM     31  O   SER A   1       3.610  -5.972 -15.444  0.00  0.00    -0.274 OA
ATOM     32  N   SER A   2       2.178  -6.161 -17.203  0.00  0.00    -0.295 N 
ATOM     33  H   SER A   2       1.739  -6.812 -17.885  0.00  0.00    +0.150 HD
BRANCH  30  34
ATOM     34  CA  SER A   1       3.106  -8.168 -16.234  0.00  0.00    +0.174 C 
BRANCH  34  35
ATOM     35  N   SER A   1       2.245  -8.887 -17.193  0.00  0.00    -0.236 NA
ATOM     36  H   SER A   1       2.628  -9.172 -18.117  0.00  0.00    +0.142 HD
ENDBRANCH  34  35
BRANCH  34  37
ATOM     37  CB  SER A   1       4.575  -8.584 -16.356  0.00  0.00    +0.163 C 
BRANCH  37  38
ATOM     38  OG  SER A   1       4.795  -9.792 -15.640  0.00  0.00    -0.380 OA
ATOM     39  H   SER A   1       4.572  -9.654 -14.685  0.00  0.00    +0.211 HD
ENDBRANCH  37  38
ENDBRANCH  34  37
ENDBRANCH  30  34
ENDBRANCH  29  32
BRANCH  29  40
ATOM     40  CB  SER A   2       1.052  -4.250 -16.095  0.00  0.00    +0.166 C 
BRANCH  40  41
ATOM     41  OG  SER A   2       0.481  -2.969 -16.358  0.00  0.00    -0.380 OA
ATOM     42  H   SER A   2      -0.113  -3.029 -17.148  0.00  0.00    +0.211 HD
ENDBRANCH  40  41
ENDBRANCH  29  40
ENDBRANCH  25  29
ENDBRANCH  24  27
BRANCH  24  43
ATOM     43  CB  VAL A   3       6.507  -4.574 -18.579  0.00  0.00    +0.027 C 
ATOM     44  CG2 VAL A   3       6.630  -5.315 -17.247  0.00  0.00    +0.002 C 
ATOM     45  CG1 VAL A   3       7.778  -3.787 -18.895  0.00  0.00    +0.002 C 
ENDBRANCH  24  43
ENDBRANCH   1  24
TORSDOF 17
REMARK  Name = ../refined-set-2016/4ca5/4ca5_pocket.pdb
REMARK  300 active torsions:
REMARK  status: ('A' for Active; 'I' for Inactive)
REMARK    1  A    between atoms: _1  and  _3
REMARK    2  A    between atoms: _3  and  _4
REMARK    3  A    between atoms: _3  and  _6
REMARK    4  A    between atoms: _6  and  _7
REMARK    5  A    between atoms: _12  and  _14
REMARK    6  A    between atoms: _14  and  _15
REMARK    7  A    between atoms: _14  and  _17
REMARK    8  A    between atoms: _17  and  _18
REMARK    9  A    between atoms: _23  and  _25
REMARK   10  A    between atoms: _25  and  _26
REMARK   11  A    between atoms: _25  and  _28
REMARK   12  A    between atoms: _28  and  _29
REMARK   13  A    between atoms: _29  and  _30
REMARK   14  A    between atoms: _33  and  _35
REMARK   15  A    between atoms: _35  and  _36
REMARK   16  A    between atoms: _35  and  _38
REMARK   17  A    between atoms: _38  and  _39
REMARK   18  A    between atoms: _44  and  _45
REMARK   19  A    between atoms: _47  and  _49
REMARK   20  A    between atoms: _49  and  _50
REMARK   21  A    between atoms: _49  and  _52
REMARK   22  A    between atoms: _52  and  _53
REMARK   23  A    between atoms: _53  and  _54
REMARK   24  A    between atoms: _57  and  _59
REMARK   25  A    between atoms: _59  and  _60
REMARK   26  A    between atoms: _59  and  _62
REMARK   27  A    between atoms: _62  and  _63
REMARK   28  A    between atoms: _66  and  _68
REMARK   29  A    between atoms: _68  and  _69
REMARK   30  A    between atoms: _71  and  _73
REMARK   31  A    between atoms: _73  and  _74
REMARK   32  A    between atoms: _73  and  _76
REMARK   33  A    between atoms: _76  and  _77
REMARK   34  A    between atoms: _82  and  _84
REMARK   35  A    between atoms: _84  and  _85
REMARK   36  A    between atoms: _84  and  _87
REMARK   37  A    between atoms: _87  and  _88
REMARK   38  A    between atoms: _88  and  _89
REMARK   39  A    between atoms: _91  and  _93
REMARK   40  A    between atoms: _93  and  _94
REMARK   41  A    between atoms: _93  and  _96
REMARK   42  A    between atoms: _96  and  _97
REMARK   43  A    between atoms: _107  and  _109
REMARK   44  A    between atoms: _109  and  _110
REMARK   45  A    between atoms: _109  and  _112
REMARK   46  A    between atoms: _112  and  _113
REMARK   47  A    between atoms: _113  and  _114
REMARK   48  A    between atoms: _119  and  _121
REMARK   49  A    between atoms: _121  and  _122
REMARK   50  A    between atoms: _121  and  _124
REMARK   51  A    between atoms: _124  and  _125
REMARK   52  A    between atoms: _128  and  _130
REMARK   53  A    between atoms: _130  and  _131
REMARK   54  A    between atoms: _130  and  _133
REMARK   55  A    between atoms: _133  and  _134
REMARK   56  A    between atoms: _144  and  _146
REMARK   57  A    between atoms: _146  and  _147
REMARK   58  A    between atoms: _146  and  _149
REMARK   59  A    between atoms: _149  and  _150
REMARK   60  A    between atoms: _152  and  _154
REMARK   61  A    between atoms: _154  and  _155
REMARK   62  A    between atoms: _154  and  _157
REMARK   63  A    between atoms: _157  and  _158
REMARK   64  A    between atoms: _163  and  _165
REMARK   65  A    between atoms: _165  and  _166
REMARK   66  A    between atoms: _165  and  _168
REMARK   67  A    between atoms: _171  and  _173
REMARK   68  A    between atoms: _173  and  _174
REMARK   69  A    between atoms: _173  and  _176
REMARK   70  A    between atoms: _178  and  _180
REMARK   71  A    between atoms: _180  and  _181
REMARK   72  A    between atoms: _180  and  _183
REMARK   73  A    between atoms: _183  and  _184
REMARK   74  A    between atoms: _189  and  _191
REMARK   75  A    between atoms: _191  and  _192
REMARK   76  A    between atoms: _195  and  _197
REMARK   77  A    between atoms: _197  and  _198
REMARK   78  A    between atoms: _197  and  _200
REMARK   79  A    between atoms: _200  and  _201
REMARK   80  A    between atoms: _203  and  _205
REMARK   81  A    between atoms: _205  and  _206
REMARK   82  A    between atoms: _209  and  _211
REMARK   83  A    between atoms: _211  and  _212
REMARK   84  A    between atoms: _211  and  _214
REMARK   85  A    between atoms: _214  and  _215
REMARK   86  A    between atoms: _225  and  _227
REMARK   87  A    between atoms: _227  and  _228
REMARK   88  A    between atoms: _227  and  _230
REMARK   89  A    between atoms: _230  and  _231
REMARK   90  A    between atoms: _234  and  _236
REMARK   91  A    between atoms: _236  and  _237
REMARK   92  A    between atoms: _236  and  _239
REMARK   93  A    between atoms: _239  and  _240
REMARK   94  A    between atoms: _245  and  _246
REMARK   95  A    between atoms: _248  and  _250
REMARK   96  A    between atoms: _250  and  _251
REMARK   97  A    between atoms: _250  and  _253
REMARK   98  A    between atoms: _253  and  _254
REMARK   99  A    between atoms: _254  and  _255
REMARK  100  A    between atoms: _255  and  _256
REMARK  101  A    between atoms: _265  and  _267
REMARK  102  A    between atoms: _267  and  _268
REMARK  103  A    between atoms: _267  and  _270
REMARK  104  A    between atoms: _270  and  _271
REMARK  105  A    between atoms: _274  and  _276
REMARK  106  A    between atoms: _276  and  _277
REMARK  107  A    between atoms: _276  and  _279
REMARK  108  A    between atoms: _279  and  _280
REMARK  109  A    between atoms: _280  and  _281
REMARK  110  A    between atoms: _281  and  _282
REMARK  111  A    between atoms: _282  and  _283
REMARK  112  A    between atoms: _287  and  _289
REMARK  113  A    between atoms: _289  and  _290
REMARK  114  A    between atoms: _289  and  _292
REMARK  115  A    between atoms: _292  and  _293
REMARK  116  A    between atoms: _293  and  _294
REMARK  117  A    between atoms: _299  and  _301
REMARK  118  A    between atoms: _301  and  _302
REMARK  119  A    between atoms: _301  and  _304
REMARK  120  A    between atoms: _304  and  _305
REMARK  121  A    between atoms: _310  and  _312
REMARK  122  A    between atoms: _312  and  _313
REMARK  123  A    between atoms: _312  and  _315
REMARK  124  A    between atoms: _315  and  _316
REMARK  125  A    between atoms: _319  and  _321
REMARK  126  A    between atoms: _321  and  _322
REMARK  127  A    between atoms: _321  and  _324
REMARK  128  A    between atoms: _324  and  _325
REMARK  129  A    between atoms: _325  and  _326
REMARK  130  A    between atoms: _329  and  _331
REMARK  131  A    between atoms: _331  and  _332
REMARK  132  A    between atoms: _331  and  _334
REMARK  133  A    between atoms: _334  and  _335
REMARK  134  A    between atoms: _338  and  _340
REMARK  135  A    between atoms: _340  and  _341
REMARK  136  A    between atoms: _340  and  _343
REMARK  137  A    between atoms: _346  and  _348
REMARK  138  A    between atoms: _348  and  _349
REMARK  139  A    between atoms: _348  and  _351
REMARK  140  A    between atoms: _354  and  _356
REMARK  141  A    between atoms: _356  and  _357
REMARK  142  A    between atoms: _360  and  _362
REMARK  143  A    between atoms: _362  and  _363
REMARK  144  A    between atoms: _362  and  _365
REMARK  145  A    between atoms: _365  and  _366
REMARK  146  A    between atoms: _371  and  _373
REMARK  147  A    between atoms: _384  and  _387
REMARK  148  A    between atoms: _387  and  _388
REMARK  149  A    between atoms: _388  and  _389
REMARK  150  A    between atoms: _394  and  _397
REMARK  151  A    between atoms: _397  and  _398
REMARK  152  A    between atoms: _398  and  _399
REMARK  153  A    between atoms: _408  and  _409
REMARK  154  A    between atoms: _417  and  _419
REMARK  155  A    between atoms: _419  and  _420
REMARK  156  A    between atoms: _419  and  _422
REMARK  157  A    between atoms: _422  and  _423
REMARK  158  A    between atoms: _426  and  _428
REMARK  159  A    between atoms: _428  and  _429
REMARK  160  A    between atoms: _428  and  _431
REMARK  161  A    between atoms: _431  and  _432
REMARK  162  A    between atoms: _437  and  _438
REMARK  163  A    between atoms: _440  and  _442
REMARK  164  A    between atoms: _442  and  _443
REMARK  165  A    between atoms: _442  and  _445
REMARK  166  A    between atoms: _445  and  _446
REMARK  167  A    between atoms: _452  and  _454
REMARK  168  A    between atoms: _454  and  _455
REMARK  169  A    between atoms: _454  and  _457
REMARK  170  A    between atoms: _457  and  _458
REMARK  171  A    between atoms: _463  and  _464
REMARK  172  A    between atoms: _466  and  _468
REMARK  173  A    between atoms: _468  and  _469
REMARK  174  A    between atoms: _468  and  _471
REMARK  175  A    between atoms: _471  and  _472
REMARK  176  A    between atoms: _472  and  _473
REMARK  177  A    between atoms: _473  and  _474
REMARK  178  A    between atoms: _483  and  _485
REMARK  179  A    between atoms: _485  and  _486
REMARK  180  A    between atoms: _485  and  _488
REMARK  181  A    between atoms: _488  and  _489
REMARK  182  A    between atoms: _489  and  _490
REMARK  183  A    between atoms: _493  and  _495
REMARK  184  A    between atoms: _495  and  _496
REMARK  185  A    between atoms: _498  and  _500
REMARK  186  A    between atoms: _500  and  _501
REMARK  187  A    between atoms: _500  and  _503
REMARK  188  A    between atoms: _503  and  _504
REMARK  189  A    between atoms: _510  and  _511
REMARK  190  A    between atoms: _516  and  _518
REMARK  191  A    between atoms: _518  and  _519
REMARK  192  A    between atoms: _521  and  _523
REMARK  193  A    between atoms: _523  and  _524
REMARK  194  A    between atoms: _523  and  _526
REMARK  195  A    between atoms: _526  and  _527
REMARK  196  A    between atoms: _533  and  _535
REMARK  197  A    between atoms: _535  and  _536
REMARK  198  A    between atoms: _535  and  _538
REMARK  199  A    between atoms: _538  and  _539
REMARK  200  A    between atoms: _544  and  _546
REMARK  201  A    between atoms: _546  and  _547
REMARK  202  A    between atoms: _546  and  _549
REMARK  203  A    between atoms: _549  and  _550
REMARK  204  A    between atoms: _550  and  _551
REMARK  205  A    between atoms: _551  and  _552
REMARK  206  A    between atoms: _552  and  ZN_793
REMARK  207  A    between atoms: _554  and  _556
REMARK  208  A    between atoms: _556  and  _557
REMARK  209  A    between atoms: _560  and  _562
REMARK  210  A    between atoms: _562  and  _563
REMARK  211  A    between atoms: _562  and  _565
REMARK  212  A    between atoms: _565  and  _566
REMARK  213  A    between atoms: _569  and  _571
REMARK  214  A    between atoms: _571  and  _572
REMARK  215  A    between atoms: _575  and  _577
REMARK  216  A    between atoms: _577  and  _578
REMARK  217  A    between atoms: _577  and  _580
REMARK  218  A    between atoms: _580  and  _581
REMARK  219  A    between atoms: _584  and  _586
REMARK  220  A    between atoms: _586  and  _587
REMARK  221  A    between atoms: _586  and  _589
REMARK  222  A    between atoms: _589  and  _590
REMARK  223  A    between atoms: _590  and  _591
REMARK  224  A    between atoms: _591  and  _592
REMARK  225  A    between atoms: _592  and  _593
REMARK  226  A    between atoms: _597  and  _599
REMARK  227  A    between atoms: _599  and  _600
REMARK  228  A    between atoms: _599  and  _602
REMARK  229  A    between atoms: _602  and  _603
REMARK  230  A    between atoms: _609  and  _611
REMARK  231  A    between atoms: _611  and  _612
REMARK  232  A    between atoms: _611  and  _614
REMARK  233  A    between atoms: _614  and  _615
REMARK  234  A    between atoms: _621  and  _623
REMARK  235  A    between atoms: _623  and  _624
REMARK  236  A    between atoms: _623  and  _626
REMARK  237  A    between atoms: _626  and  _627
REMARK  238  A    between atoms: _629  and  _631
REMARK  239  A    between atoms: _631  and  _632
REMARK  240  A    between atoms: _631  and  _634
REMARK  241  A    between atoms: _637  and  _639
REMARK  242  A    between atoms: _639  and  _640
REMARK  243  A    between atoms: _639  and  _642
REMARK  244  A    between atoms: _642  and  _643
REMARK  245  A    between atoms: _643  and  _644
REMARK  246  A    between atoms: _644  and  _645
REMARK  247  A    between atoms: _645  and  _646
REMARK  248  A    between atoms: _650  and  _652
REMARK  249  A    between atoms: _652  and  _653
REMARK  250  A    between atoms: _652  and  _655
REMARK  251  A    between atoms: _655  and  _656
REMARK  252  A    between atoms: _662  and  _664
REMARK  253  A    between atoms: _664  and  _665
REMARK  254  A    between atoms: _664  and  _667
REMARK  255  A    between atoms: _667  and  _668
REMARK  256  A    between atoms: _673  and  _675
REMARK  257  A    between atoms: _675  and  _676
REMARK  258  A    between atoms: _675  and  _678
REMARK  259  A    between atoms: _678  and  _679
REMARK  260  A    between atoms: _681  and  _683
REMARK  261  A    between atoms: _683  and  _684
REMARK  262  A    between atoms: _683  and  _686
REMARK  263  A    between atoms: _686  and  _687
REMARK  264  A    between atoms: _689  and  _691
REMARK  265  A    between atoms: _691  and  _692
REMARK  266  A    between atoms: _691  and  _694
REMARK  267  A    between atoms: _698  and  _699
REMARK  268  A    between atoms: _704  and  _706
REMARK  269  A    between atoms: _706  and  _707
REMARK  270  A    between atoms: _706  and  _709
REMARK  271  A    between atoms: _709  and  _710
REMARK  272  A    between atoms: _715  and  _716
REMARK  273  A    between atoms: _718  and  _720
REMARK  274  A    between atoms: _720  and  _721
REMARK  275  A    between atoms: _720  and  _723
REMARK  276  A    between atoms: _723  and  _724
REMARK  277  A    between atoms: _724  and  _725
REMARK  278  A    between atoms: _725  and  _726
REMARK  279  A    between atoms: _735  and  _737
REMARK  280  A    between atoms: _737  and  _738
REMARK  281  A    between atoms: _737  and  _740
REMARK  282  A    between atoms: _740  and  _741
REMARK  283  A    between atoms: _746  and  _747
REMARK  284  A    between atoms: _749  and  _751
REMARK  285  A    between atoms: _751  and  _752
REMARK  286  A    between atoms: _751  and  _754
REMARK  287  A    between atoms: _754  and  _755
REMARK  288  A    between atoms: _761  and  _763
REMARK  289  A    between atoms: _763  and  _764
REMARK  290  A    between atoms: _763  and  _766
REMARK  291  A    between atoms: _766  and  _767
REMARK  292  A    between atoms: _769  and  _771
REMARK  293  A    between atoms: _771  and  _772
REMARK  294  A    between atoms: _771  and  _774
REMARK  295  A    between atoms: _774  and  _775
REMARK  296  A    between atoms: _781  and  _783
REMARK  297  A    between atoms: _783  and  _784
REMARK  298  A    between atoms: _783  and  _786
REMARK  299  A    between atoms: _786  and  _787
REMARK  300  A    between atoms: _787  and  _788
REMARK                            x       y       z     vdW  Elec       q    Type
REMARK                         _______ _______ _______ _____ _____    ______ ____
ROOT
ATOM      1  CA  TYR A   2      12.033  -1.452 -26.875  0.00  0.00    +0.153 C 
ENDROOT
BRANCH   1   4
ATOM      2  C   ARG A   1      11.593   0.631 -25.694  0.00  0.00    +0.238 C 
ATOM      3  O   ARG A   1      12.714   1.052 -25.957  0.00  0.00    -0.274 OA
ATOM      4  N   TYR A   2      11.177  -0.577 -26.065  0.00  0.00    -0.297 N 
ATOM      5  H   TYR A   2      10.233  -0.906 -25.777  0.00  0.00    +0.150 HD
BRANCH   2   6
ATOM      6  CA  ARG A   1      10.633   1.467 -24.831  0.00  0.00    +0.145 C 
BRANCH   6   7
ATOM      7  N   ARG A   1       9.216   1.352 -25.222  0.00  0.00    -0.238 NA
ATOM      8  H   ARG A   1       8.495   1.241 -24.481  0.00  0.00    +0.142 HD
ENDBRANCH   6   7
BRANCH   6   9
ATOM      9  CB  ARG A   1      10.827   1.046 -23.375  0.00  0.00    +0.030 C 
BRANCH   9  10
ATOM     10  CG  ARG A   1      10.357  -0.371 -23.052  0.00  0.00    +0.045 C 
BRANCH  10  11
ATOM     11  CD  ARG A   1      10.336  -0.639 -21.549  0.00  0.00    +0.174 C 
BRANCH  11  12
ATOM     12  NE  ARG A   1       9.560   0.381 -20.837  0.00  0.00    -0.265 N 
ATOM     13  CZ  ARG A   1       9.339   0.409 -19.527  0.00  0.00    +0.342 C 
ATOM     14  NH2 ARG A   1       9.825  -0.537 -18.720  0.00  0.00    -0.292 N 
ATOM     15 HH21 ARG A   1       9.639  -0.494 -17.698  0.00  0.00    +0.255 HD
ATOM     16 HH22 ARG A   1      10.390  -1.317 -19.114  0.00  0.00    +0.255 HD
ATOM     17  NH1 ARG A   1       8.624   1.407 -19.008  0.00  0.00    -0.292 N 
ATOM     18 HH11 ARG A   1       8.444   1.440 -17.984  0.00  0.00    +0.255 HD
ATOM     19 HH12 ARG A   1       8.246   2.153 -19.627  0.00  0.00    +0.255 HD
ATOM     20  HE  ARG A   1       9.147   1.148 -21.406  0.00  0.00    +0.259 HD
ENDBRANCH  11  12
ENDBRANCH  10  11
ENDBRANCH   9  10
ENDBRANCH   6   9
ENDBRANCH   2   6
ENDBRANCH   1   4
BRANCH   1  21
ATOM     21  C   TYR A   2      12.158  -1.048 -28.342  0.00  0.00    +0.241 C 
ATOM     22  N   PHE A   3      11.086  -0.508 -28.911  0.00  0.00    -0.298 N 
ATOM     23  H   PHE A   3      10.180  -0.531 -28.400  0.00  0.00    +0.150 HD
ATOM     24  O   TYR A   2      13.205  -1.258 -28.955  0.00  0.00    -0.273 OA
BRANCH  22  25
ATOM     25  CA  PHE A   3      11.137   0.123 -30.242  0.00  0.00    +0.141 C 
BRANCH  25  26
ATOM     26  C   PHE A   3      12.113   1.296 -30.209  0.00  0.00    +0.227 C 
ATOM     27  O   PHE A   3      13.017   1.384 -31.049  0.00  0.00    -0.286 OA
ENDBRANCH  25  26
BRANCH  25  28
ATOM     28  CB  PHE A   3       9.735   0.596 -30.663  0.00  0.00    +0.054 C 
BRANCH  28  29
ATOM     29  CG  PHE A   3       9.697   1.272 -32.017  0.00  0.00    -0.020 A 
ATOM     30  CD2 PHE A   3       9.872   2.644 -32.125  0.00  0.00    -0.004 A 
ATOM     31  CE2 PHE A   3       9.852   3.267 -33.365  0.00  0.00    -0.000 A 
ATOM     32  CZ  PHE A   3       9.632   2.519 -34.520  0.00  0.00    -0.000 A 
ATOM     33  CE1 PHE A   3       9.455   1.157 -34.424  0.00  0.00    -0.000 A 
ATOM     34  CD1 PHE A   3       9.492   0.534 -33.180  0.00  0.00    -0.004 A 
ENDBRANCH  28  29
ENDBRANCH  25  28
ENDBRANCH  22  25
ENDBRANCH   1  21
BRANCH   1  35
ATOM     35  CB  TYR A   2      11.568  -2.905 -26.759  0.00  0.00    +0.055 C 
BRANCH  35  36
ATOM     36  CG  TYR A   2      11.508  -3.402 -25.338  0.00  0.00    -0.020 A 
ATOM     37  CD2 TYR A   2      12.676  -3.588 -24.588  0.00  0.00    -0.001 A 
ATOM     38  CE2 TYR A   2      12.620  -4.079 -23.293  0.00  0.00    +0.036 A 
ATOM     39  CZ  TYR A   2      11.388  -4.364 -22.717  0.00  0.00    +0.134 A 
ATOM     40  CE1 TYR A   2      10.215  -4.185 -23.430  0.00  0.00    +0.036 A 
ATOM     41  CD1 TYR A   2      10.281  -3.710 -24.739  0.00  0.00    -0.001 A 
BRANCH  39  42
ATOM     42  OH  TYR A   2      11.332  -4.850 -21.430  0.00  0.00    -0.506 OA
ATOM     43  HH  TYR A   2      12.249  -4.918 -21.064  0.00  0.00    +0.292 HD
ENDBRANCH  39  42
ENDBRANCH  35  36
ENDBRANCH   1  35
TORSDOF 15
REMARK  Name = ../refined-set-2016/4ca5/4ca5_pocket.pdb
REMARK  300 active torsions:
REMARK  status: ('A' for Active; 'I' for Inactive)
REMARK    1  A    between atoms: _1  and  _3
REMARK    2  A    between atoms: _3  and  _4
REMARK    3  A    between atoms: _3  and  _6
REMARK    4  A    between atoms: _6  and  _7
REMARK    5  A    between atoms: _12  and  _14
REMARK    6  A    between atoms: _14  and  _15
REMARK    7  A    between atoms: _14  and  _17
REMARK    8  A    between atoms: _17  and  _18
REMARK    9  A    between atoms: _23  and  _25
REMARK   10  A    between atoms: _25  and  _26
REMARK   11  A    between atoms: _25  and  _28
REMARK   12  A    between atoms: _28  and  _29
REMARK   13  A    between atoms: _29  and  _30
REMARK   14  A    between atoms: _33  and  _35
REMARK   15  A    between atoms: _35  and  _36
REMARK   16  A    between atoms: _35  and  _38
REMARK   17  A    between atoms: _38  and  _39
REMARK   18  A    between atoms: _44  and  _45
REMARK   19  A    between atoms: _47  and  _49
REMARK   20  A    between atoms: _49  and  _50
REMARK   21  A    between atoms: _49  and  _52
REMARK   22  A    between atoms: _52  and  _53
REMARK   23  A    between atoms: _53  and  _54
REMARK   24  A    between atoms: _57  and  _59
REMARK   25  A    between atoms: _59  and  _60
REMARK   26  A    between atoms: _59  and  _62
REMARK   27  A    between atoms: _62  and  _63
REMARK   28  A    between atoms: _66  and  _68
REMARK   29  A    between atoms: _68  and  _69
REMARK   30  A    between atoms: _71  and  _73
REMARK   31  A    between atoms: _73  and  _74
REMARK   32  A    between atoms: _73  and  _76
REMARK   33  A    between atoms: _76  and  _77
REMARK   34  A    between atoms: _82  and  _84
REMARK   35  A    between atoms: _84  and  _85
REMARK   36  A    between atoms: _84  and  _87
REMARK   37  A    between atoms: _87  and  _88
REMARK   38  A    between atoms: _88  and  _89
REMARK   39  A    between atoms: _91  and  _93
REMARK   40  A    between atoms: _93  and  _94
REMARK   41  A    between atoms: _93  and  _96
REMARK   42  A    between atoms: _96  and  _97
REMARK   43  A    between atoms: _107  and  _109
REMARK   44  A    between atoms: _109  and  _110
REMARK   45  A    between atoms: _109  and  _112
REMARK   46  A    between atoms: _112  and  _113
REMARK   47  A    between atoms: _113  and  _114
REMARK   48  A    between atoms: _119  and  _121
REMARK   49  A    between atoms: _121  and  _122
REMARK   50  A    between atoms: _121  and  _124
REMARK   51  A    between atoms: _124  and  _125
REMARK   52  A    between atoms: _128  and  _130
REMARK   53  A    between atoms: _130  and  _131
REMARK   54  A    between atoms: _130  and  _133
REMARK   55  A    between atoms: _133  and  _134
REMARK   56  A    between atoms: _144  and  _146
REMARK   57  A    between atoms: _146  and  _147
REMARK   58  A    between atoms: _146  and  _149
REMARK   59  A    between atoms: _149  and  _150
REMARK   60  A    between atoms: _152  and  _154
REMARK   61  A    between atoms: _154  and  _155
REMARK   62  A    between atoms: _154  and  _157
REMARK   63  A    between atoms: _157  and  _158
REMARK   64  A    between atoms: _163  and  _165
REMARK   65  A    between atoms: _165  and  _166
REMARK   66  A    between atoms: _165  and  _168
REMARK   67  A    between atoms: _171  and  _173
REMARK   68  A    between atoms: _173  and  _174
REMARK   69  A    between atoms: _173  and  _176
REMARK   70  A    between atoms: _178  and  _180
REMARK   71  A    between atoms: _180  and  _181
REMARK   72  A    between atoms: _180  and  _183
REMARK   73  A    between atoms: _183  and  _184
REMARK   74  A    between atoms: _189  and  _191
REMARK   75  A    between atoms: _191  and  _192
REMARK   76  A    between atoms: _195  and  _197
REMARK   77  A    between atoms: _197  and  _198
REMARK   78  A    between atoms: _197  and  _200
REMARK   79  A    between atoms: _200  and  _201
REMARK   80  A    between atoms: _203  and  _205
REMARK   81  A    between atoms: _205  and  _206
REMARK   82  A    between atoms: _209  and  _211
REMARK   83  A    between atoms: _211  and  _212
REMARK   84  A    between atoms: _211  and  _214
REMARK   85  A    between atoms: _214  and  _215
REMARK   86  A    between atoms: _225  and  _227
REMARK   87  A    between atoms: _227  and  _228
REMARK   88  A    between atoms: _227  and  _230
REMARK   89  A    between atoms: _230  and  _231
REMARK   90  A    between atoms: _234  and  _236
REMARK   91  A    between atoms: _236  and  _237
REMARK   92  A    between atoms: _236  and  _239
REMARK   93  A    between atoms: _239  and  _240
REMARK   94  A    between atoms: _245  and  _246
REMARK   95  A    between atoms: _248  and  _250
REMARK   96  A    between atoms: _250  and  _251
REMARK   97  A    between atoms: _250  and  _253
REMARK   98  A    between atoms: _253  and  _254
REMARK   99  A    between atoms: _254  and  _255
REMARK  100  A    between atoms: _255  and  _256
REMARK  101  A    between atoms: _265  and  _267
REMARK  102  A    between atoms: _267  and  _268
REMARK  103  A    between atoms: _267  and  _270
REMARK  104  A    between atoms: _270  and  _271
REMARK  105  A    between atoms: _274  and  _276
REMARK  106  A    between atoms: _276  and  _277
REMARK  107  A    between atoms: _276  and  _279
REMARK  108  A    between atoms: _279  and  _280
REMARK  109  A    between atoms: _280  and  _281
REMARK  110  A    between atoms: _281  and  _282
REMARK  111  A    between atoms: _282  and  _283
REMARK  112  A    between atoms: _287  and  _289
REMARK  113  A    between atoms: _289  and  _290
REMARK  114  A    between atoms: _289  and  _292
REMARK  115  A    between atoms: _292  and  _293
REMARK  116  A    between atoms: _293  and  _294
REMARK  117  A    between atoms: _299  and  _301
REMARK  118  A    between atoms: _301  and  _302
REMARK  119  A    between atoms: _301  and  _304
REMARK  120  A    between atoms: _304  and  _305
REMARK  121  A    between atoms: _310  and  _312
REMARK  122  A    between atoms: _312  and  _313
REMARK  123  A    between atoms: _312  and  _315
REMARK  124  A    between atoms: _315  and  _316
REMARK  125  A    between atoms: _319  and  _321
REMARK  126  A    between atoms: _321  and  _322
REMARK  127  A    between atoms: _321  and  _324
REMARK  128  A    between atoms: _324  and  _325
REMARK  129  A    between atoms: _325  and  _326
REMARK  130  A    between atoms: _329  and  _331
REMARK  131  A    between atoms: _331  and  _332
REMARK  132  A    between atoms: _331  and  _334
REMARK  133  A    between atoms: _334  and  _335
REMARK  134  A    between atoms: _338  and  _340
REMARK  135  A    between atoms: _340  and  _341
REMARK  136  A    between atoms: _340  and  _343
REMARK  137  A    between atoms: _346  and  _348
REMARK  138  A    between atoms: _348  and  _349
REMARK  139  A    between atoms: _348  and  _351
REMARK  140  A    between atoms: _354  and  _356
REMARK  141  A    between atoms: _356  and  _357
REMARK  142  A    between atoms: _360  and  _362
REMARK  143  A    between atoms: _362  and  _363
REMARK  144  A    between atoms: _362  and  _365
REMARK  145  A    between atoms: _365  and  _366
REMARK  146  A    between atoms: _371  and  _373
REMARK  147  A    between atoms: _384  and  _387
REMARK  148  A    between atoms: _387  and  _388
REMARK  149  A    between atoms: _388  and  _389
REMARK  150  A    between atoms: _394  and  _397
REMARK  151  A    between atoms: _397  and  _398
REMARK  152  A    between atoms: _398  and  _399
REMARK  153  A    between atoms: _408  and  _409
REMARK  154  A    between atoms: _417  and  _419
REMARK  155  A    between atoms: _419  and  _420
REMARK  156  A    between atoms: _419  and  _422
REMARK  157  A    between atoms: _422  and  _423
REMARK  158  A    between atoms: _426  and  _428
REMARK  159  A    between atoms: _428  and  _429
REMARK  160  A    between atoms: _428  and  _431
REMARK  161  A    between atoms: _431  and  _432
REMARK  162  A    between atoms: _437  and  _438
REMARK  163  A    between atoms: _440  and  _442
REMARK  164  A    between atoms: _442  and  _443
REMARK  165  A    between atoms: _442  and  _445
REMARK  166  A    between atoms: _445  and  _446
REMARK  167  A    between atoms: _452  and  _454
REMARK  168  A    between atoms: _454  and  _455
REMARK  169  A    between atoms: _454  and  _457
REMARK  170  A    between atoms: _457  and  _458
REMARK  171  A    between atoms: _463  and  _464
REMARK  172  A    between atoms: _466  and  _468
REMARK  173  A    between atoms: _468  and  _469
REMARK  174  A    between atoms: _468  and  _471
REMARK  175  A    between atoms: _471  and  _472
REMARK  176  A    between atoms: _472  and  _473
REMARK  177  A    between atoms: _473  and  _474
REMARK  178  A    between atoms: _483  and  _485
REMARK  179  A    between atoms: _485  and  _486
REMARK  180  A    between atoms: _485  and  _488
REMARK  181  A    between atoms: _488  and  _489
REMARK  182  A    between atoms: _489  and  _490
REMARK  183  A    between atoms: _493  and  _495
REMARK  184  A    between atoms: _495  and  _496
REMARK  185  A    between atoms: _498  and  _500
REMARK  186  A    between atoms: _500  and  _501
REMARK  187  A    between atoms: _500  and  _503
REMARK  188  A    between atoms: _503  and  _504
REMARK  189  A    between atoms: _510  and  _511
REMARK  190  A    between atoms: _516  and  _518
REMARK  191  A    between atoms: _518  and  _519
REMARK  192  A    between atoms: _521  and  _523
REMARK  193  A    between atoms: _523  and  _524
REMARK  194  A    between atoms: _523  and  _526
REMARK  195  A    between atoms: _526  and  _527
REMARK  196  A    between atoms: _533  and  _535
REMARK  197  A    between atoms: _535  and  _536
REMARK  198  A    between atoms: _535  and  _538
REMARK  199  A    between atoms: _538  and  _539
REMARK  200  A    between atoms: _544  and  _546
REMARK  201  A    between atoms: _546  and  _547
REMARK  202  A    between atoms: _546  and  _549
REMARK  203  A    between atoms: _549  and  _550
REMARK  204  A    between atoms: _550  and  _551
REMARK  205  A    between atoms: _551  and  _552
REMARK  206  A    between atoms: _552  and  ZN_793
REMARK  207  A    between atoms: _554  and  _556
REMARK  208  A    between atoms: _556  and  _557
REMARK  209  A    between atoms: _560  and  _562
REMARK  210  A    between atoms: _562  and  _563
REMARK  211  A    between atoms: _562  and  _565
REMARK  212  A    between atoms: _565  and  _566
REMARK  213  A    between atoms: _569  and  _571
REMARK  214  A    between atoms: _571  and  _572
REMARK  215  A    between atoms: _575  and  _577
REMARK  216  A    between atoms: _577  and  _578
REMARK  217  A    between atoms: _577  and  _580
REMARK  218  A    between atoms: _580  and  _581
REMARK  219  A    between atoms: _584  and  _586
REMARK  220  A    between atoms: _586  and  _587
REMARK  221  A    between atoms: _586  and  _589
REMARK  222  A    between atoms: _589  and  _590
REMARK  223  A    between atoms: _590  and  _591
REMARK  224  A    between atoms: _591  and  _592
REMARK  225  A    between atoms: _592  and  _593
REMARK  226  A    between atoms: _597  and  _599
REMARK  227  A    between atoms: _599  and  _600
REMARK  228  A    between atoms: _599  and  _602
REMARK  229  A    between atoms: _602  and  _603
REMARK  230  A    between atoms: _609  and  _611
REMARK  231  A    between atoms: _611  and  _612
REMARK  232  A    between atoms: _611  and  _614
REMARK  233  A    between atoms: _614  and  _615
REMARK  234  A    between atoms: _621  and  _623
REMARK  235  A    between atoms: _623  and  _624
REMARK  236  A    between atoms: _623  and  _626
REMARK  237  A    between atoms: _626  and  _627
REMARK  238  A    between atoms: _629  and  _631
REMARK  239  A    between atoms: _631  and  _632
REMARK  240  A    between atoms: _631  and  _634
REMARK  241  A    between atoms: _637  and  _639
REMARK  242  A    between atoms: _639  and  _640
REMARK  243  A    between atoms: _639  and  _642
REMARK  244  A    between atoms: _642  and  _643
REMARK  245  A    between atoms: _643  and  _644
REMARK  246  A    between atoms: _644  and  _645
REMARK  247  A    between atoms: _645  and  _646
REMARK  248  A    between atoms: _650  and  _652
REMARK  249  A    between atoms: _652  and  _653
REMARK  250  A    between atoms: _652  and  _655
REMARK  251  A    between atoms: _655  and  _656
REMARK  252  A    between atoms: _662  and  _664
REMARK  253  A    between atoms: _664  and  _665
REMARK  254  A    between atoms: _664  and  _667
REMARK  255  A    between atoms: _667  and  _668
REMARK  256  A    between atoms: _673  and  _675
REMARK  257  A    between atoms: _675  and  _676
REMARK  258  A    between atoms: _675  and  _678
REMARK  259  A    between atoms: _678  and  _679
REMARK  260  A    between atoms: _681  and  _683
REMARK  261  A    between atoms: _683  and  _684
REMARK  262  A    between atoms: _683  and  _686
REMARK  263  A    between atoms: _686  and  _687
REMARK  264  A    between atoms: _689  and  _691
REMARK  265  A    between atoms: _691  and  _692
REMARK  266  A    between atoms: _691  and  _694
REMARK  267  A    between atoms: _698  and  _699
REMARK  268  A    between atoms: _704  and  _706
REMARK  269  A    between atoms: _706  and  _707
REMARK  270  A    between atoms: _706  and  _709
REMARK  271  A    between atoms: _709  and  _710
REMARK  272  A    between atoms: _715  and  _716
REMARK  273  A    between atoms: _718  and  _720
REMARK  274  A    between atoms: _720  and  _721
REMARK  275  A    between atoms: _720  and  _723
REMARK  276  A    between atoms: _723  and  _724
REMARK  277  A    between atoms: _724  and  _725
REMARK  278  A    between atoms: _725  and  _726
REMARK  279  A    between atoms: _735  and  _737
REMARK  280  A    between atoms: _737  and  _738
REMARK  281  A    between atoms: _737  and  _740
REMARK  282  A    between atoms: _740  and  _741
REMARK  283  A    between atoms: _746  and  _747
REMARK  284  A    between atoms: _749  and  _751
REMARK  285  A    between atoms: _751  and  _752
REMARK  286  A    between atoms: _751  and  _754
REMARK  287  A    between atoms: _754  and  _755
REMARK  288  A    between atoms: _761  and  _763
REMARK  289  A    between atoms: _763  and  _764
REMARK  290  A    between atoms: _763  and  _766
REMARK  291  A    between atoms: _766  and  _767
REMARK  292  A    between atoms: _769  and  _771
REMARK  293  A    between atoms: _771  and  _772
REMARK  294  A    between atoms: _771  and  _774
REMARK  295  A    between atoms: _774  and  _775
REMARK  296  A    between atoms: _781  and  _783
REMARK  297  A    between atoms: _783  and  _784
REMARK  298  A    between atoms: _783  and  _786
REMARK  299  A    between atoms: _786  and  _787
REMARK  300  A    between atoms: _787  and  _788
REMARK                            x       y       z     vdW  Elec       q    Type
REMARK                         _______ _______ _______ _____ _____    ______ ____
ROOT
ATOM      1  C   SER A   1      16.479   0.791 -29.082  0.00  0.00    +0.241 C 
ATOM      2  O   SER A   1      17.641   1.131 -29.327  0.00  0.00    -0.274 OA
ATOM      3  N   PHE A   2      15.768   0.011 -29.896  0.00  0.00    -0.298 N 
ATOM      4  H   PHE A   2      14.780  -0.220 -29.667  0.00  0.00    +0.150 HD
ENDROOT
BRANCH   1   5
ATOM      5  CA  SER A   1      15.810   1.254 -27.791  0.00  0.00    +0.174 C 
BRANCH   5   6
ATOM      6  N   SER A   1      14.481   1.807 -28.041  0.00  0.00    -0.236 NA
ATOM      7  H   SER A   1      13.659   1.402 -27.548  0.00  0.00    +0.142 HD
ENDBRANCH   5   6
BRANCH   5   8
ATOM      8  CB  SER A   1      15.753   0.092 -26.793  0.00  0.00    +0.163 C 
BRANCH   8   9
ATOM      9  OG  SER A   1      17.023  -0.542 -26.675  0.00  0.00    -0.380 OA
ATOM     10  H   SER A   1      16.960  -1.287 -26.026  0.00  0.00    +0.211 HD
ENDBRANCH   8   9
ENDBRANCH   5   8
ENDBRANCH   1   5
BRANCH   3  11
ATOM     11  CA  PHE A   2      16.387  -0.523 -31.121  0.00  0.00    +0.141 C 
BRANCH  11  12
ATOM     12  C   PHE A   2      16.839   0.582 -32.085  0.00  0.00    +0.227 C 
ATOM     13  O   PHE A   2      17.892   0.451 -32.738  0.00  0.00    -0.286 OA
ENDBRANCH  11  12
BRANCH  11  14
ATOM     14  CB  PHE A   2      15.507  -1.603 -31.800  0.00  0.00    +0.054 C 
BRANCH  14  15
ATOM     15  CG  PHE A   2      15.757  -2.999 -31.273  0.00  0.00    -0.020 A 
ATOM     16  CD2 PHE A   2      15.827  -3.235 -29.894  0.00  0.00    -0.004 A 
ATOM     17  CE2 PHE A   2      16.066  -4.514 -29.397  0.00  0.00    -0.000 A 
ATOM     18  CZ  PHE A   2      16.245  -5.575 -30.293  0.00  0.00    -0.000 A 
ATOM     19  CE1 PHE A   2      16.174  -5.349 -31.661  0.00  0.00    -0.000 A 
ATOM     20  CD1 PHE A   2      15.945  -4.065 -32.143  0.00  0.00    -0.004 A 
ENDBRANCH  14  15
ENDBRANCH  11  14
ENDBRANCH   3  11
TORSDOF 8
REMARK  Name = ../refined-set-2016/4ca5/4ca5_pocket.pdb
REMARK  300 active torsions:
REMARK  status: ('A' for Active; 'I' for Inactive)
REMARK    1  A    between atoms: _1  and  _3
REMARK    2  A    between atoms: _3  and  _4
REMARK    3  A    between atoms: _3  and  _6
REMARK    4  A    between atoms: _6  and  _7
REMARK    5  A    between atoms: _12  and  _14
REMARK    6  A    between atoms: _14  and  _15
REMARK    7  A    between atoms: _14  and  _17
REMARK    8  A    between atoms: _17  and  _18
REMARK    9  A    between atoms: _23  and  _25
REMARK   10  A    between atoms: _25  and  _26
REMARK   11  A    between atoms: _25  and  _28
REMARK   12  A    between atoms: _28  and  _29
REMARK   13  A    between atoms: _29  and  _30
REMARK   14  A    between atoms: _33  and  _35
REMARK   15  A    between atoms: _35  and  _36
REMARK   16  A    between atoms: _35  and  _38
REMARK   17  A    between atoms: _38  and  _39
REMARK   18  A    between atoms: _44  and  _45
REMARK   19  A    between atoms: _47  and  _49
REMARK   20  A    between atoms: _49  and  _50
REMARK   21  A    between atoms: _49  and  _52
REMARK   22  A    between atoms: _52  and  _53
REMARK   23  A    between atoms: _53  and  _54
REMARK   24  A    between atoms: _57  and  _59
REMARK   25  A    between atoms: _59  and  _60
REMARK   26  A    between atoms: _59  and  _62
REMARK   27  A    between atoms: _62  and  _63
REMARK   28  A    between atoms: _66  and  _68
REMARK   29  A    between atoms: _68  and  _69
REMARK   30  A    between atoms: _71  and  _73
REMARK   31  A    between atoms: _73  and  _74
REMARK   32  A    between atoms: _73  and  _76
REMARK   33  A    between atoms: _76  and  _77
REMARK   34  A    between atoms: _82  and  _84
REMARK   35  A    between atoms: _84  and  _85
REMARK   36  A    between atoms: _84  and  _87
REMARK   37  A    between atoms: _87  and  _88
REMARK   38  A    between atoms: _88  and  _89
REMARK   39  A    between atoms: _91  and  _93
REMARK   40  A    between atoms: _93  and  _94
REMARK   41  A    between atoms: _93  and  _96
REMARK   42  A    between atoms: _96  and  _97
REMARK   43  A    between atoms: _107  and  _109
REMARK   44  A    between atoms: _109  and  _110
REMARK   45  A    between atoms: _109  and  _112
REMARK   46  A    between atoms: _112  and  _113
REMARK   47  A    between atoms: _113  and  _114
REMARK   48  A    between atoms: _119  and  _121
REMARK   49  A    between atoms: _121  and  _122
REMARK   50  A    between atoms: _121  and  _124
REMARK   51  A    between atoms: _124  and  _125
REMARK   52  A    between atoms: _128  and  _130
REMARK   53  A    between atoms: _130  and  _131
REMARK   54  A    between atoms: _130  and  _133
REMARK   55  A    between atoms: _133  and  _134
REMARK   56  A    between atoms: _144  and  _146
REMARK   57  A    between atoms: _146  and  _147
REMARK   58  A    between atoms: _146  and  _149
REMARK   59  A    between atoms: _149  and  _150
REMARK   60  A    between atoms: _152  and  _154
REMARK   61  A    between atoms: _154  and  _155
REMARK   62  A    between atoms: _154  and  _157
REMARK   63  A    between atoms: _157  and  _158
REMARK   64  A    between atoms: _163  and  _165
REMARK   65  A    between atoms: _165  and  _166
REMARK   66  A    between atoms: _165  and  _168
REMARK   67  A    between atoms: _171  and  _173
REMARK   68  A    between atoms: _173  and  _174
REMARK   69  A    between atoms: _173  and  _176
REMARK   70  A    between atoms: _178  and  _180
REMARK   71  A    between atoms: _180  and  _181
REMARK   72  A    between atoms: _180  and  _183
REMARK   73  A    between atoms: _183  and  _184
REMARK   74  A    between atoms: _189  and  _191
REMARK   75  A    between atoms: _191  and  _192
REMARK   76  A    between atoms: _195  and  _197
REMARK   77  A    between atoms: _197  and  _198
REMARK   78  A    between atoms: _197  and  _200
REMARK   79  A    between atoms: _200  and  _201
REMARK   80  A    between atoms: _203  and  _205
REMARK   81  A    between atoms: _205  and  _206
REMARK   82  A    between atoms: _209  and  _211
REMARK   83  A    between atoms: _211  and  _212
REMARK   84  A    between atoms: _211  and  _214
REMARK   85  A    between atoms: _214  and  _215
REMARK   86  A    between atoms: _225  and  _227
REMARK   87  A    between atoms: _227  and  _228
REMARK   88  A    between atoms: _227  and  _230
REMARK   89  A    between atoms: _230  and  _231
REMARK   90  A    between atoms: _234  and  _236
REMARK   91  A    between atoms: _236  and  _237
REMARK   92  A    between atoms: _236  and  _239
REMARK   93  A    between atoms: _239  and  _240
REMARK   94  A    between atoms: _245  and  _246
REMARK   95  A    between atoms: _248  and  _250
REMARK   96  A    between atoms: _250  and  _251
REMARK   97  A    between atoms: _250  and  _253
REMARK   98  A    between atoms: _253  and  _254
REMARK   99  A    between atoms: _254  and  _255
REMARK  100  A    between atoms: _255  and  _256
REMARK  101  A    between atoms: _265  and  _267
REMARK  102  A    between atoms: _267  and  _268
REMARK  103  A    between atoms: _267  and  _270
REMARK  104  A    between atoms: _270  and  _271
REMARK  105  A    between atoms: _274  and  _276
REMARK  106  A    between atoms: _276  and  _277
REMARK  107  A    between atoms: _276  and  _279
REMARK  108  A    between atoms: _279  and  _280
REMARK  109  A    between atoms: _280  and  _281
REMARK  110  A    between atoms: _281  and  _282
REMARK  111  A    between atoms: _282  and  _283
REMARK  112  A    between atoms: _287  and  _289
REMARK  113  A    between atoms: _289  and  _290
REMARK  114  A    between atoms: _289  and  _292
REMARK  115  A    between atoms: _292  and  _293
REMARK  116  A    between atoms: _293  and  _294
REMARK  117  A    between atoms: _299  and  _301
REMARK  118  A    between atoms: _301  and  _302
REMARK  119  A    between atoms: _301  and  _304
REMARK  120  A    between atoms: _304  and  _305
REMARK  121  A    between atoms: _310  and  _312
REMARK  122  A    between atoms: _312  and  _313
REMARK  123  A    between atoms: _312  and  _315
REMARK  124  A    between atoms: _315  and  _316
REMARK  125  A    between atoms: _319  and  _321
REMARK  126  A    between atoms: _321  and  _322
REMARK  127  A    between atoms: _321  and  _324
REMARK  128  A    between atoms: _324  and  _325
REMARK  129  A    between atoms: _325  and  _326
REMARK  130  A    between atoms: _329  and  _331
REMARK  131  A    between atoms: _331  and  _332
REMARK  132  A    between atoms: _331  and  _334
REMARK  133  A    between atoms: _334  and  _335
REMARK  134  A    between atoms: _338  and  _340
REMARK  135  A    between atoms: _340  and  _341
REMARK  136  A    between atoms: _340  and  _343
REMARK  137  A    between atoms: _346  and  _348
REMARK  138  A    between atoms: _348  and  _349
REMARK  139  A    between atoms: _348  and  _351
REMARK  140  A    between atoms: _354  and  _356
REMARK  141  A    between atoms: _356  and  _357
REMARK  142  A    between atoms: _360  and  _362
REMARK  143  A    between atoms: _362  and  _363
REMARK  144  A    between atoms: _362  and  _365
REMARK  145  A    between atoms: _365  and  _366
REMARK  146  A    between atoms: _371  and  _373
REMARK  147  A    between atoms: _384  and  _387
REMARK  148  A    between atoms: _387  and  _388
REMARK  149  A    between atoms: _388  and  _389
REMARK  150  A    between atoms: _394  and  _397
REMARK  151  A    between atoms: _397  and  _398
REMARK  152  A    between atoms: _398  and  _399
REMARK  153  A    between atoms: _408  and  _409
REMARK  154  A    between atoms: _417  and  _419
REMARK  155  A    between atoms: _419  and  _420
REMARK  156  A    between atoms: _419  and  _422
REMARK  157  A    between atoms: _422  and  _423
REMARK  158  A    between atoms: _426  and  _428
REMARK  159  A    between atoms: _428  and  _429
REMARK  160  A    between atoms: _428  and  _431
REMARK  161  A    between atoms: _431  and  _432
REMARK  162  A    between atoms: _437  and  _438
REMARK  163  A    between atoms: _440  and  _442
REMARK  164  A    between atoms: _442  and  _443
REMARK  165  A    between atoms: _442  and  _445
REMARK  166  A    between atoms: _445  and  _446
REMARK  167  A    between atoms: _452  and  _454
REMARK  168  A    between atoms: _454  and  _455
REMARK  169  A    between atoms: _454  and  _457
REMARK  170  A    between atoms: _457  and  _458
REMARK  171  A    between atoms: _463  and  _464
REMARK  172  A    between atoms: _466  and  _468
REMARK  173  A    between atoms: _468  and  _469
REMARK  174  A    between atoms: _468  and  _471
REMARK  175  A    between atoms: _471  and  _472
REMARK  176  A    between atoms: _472  and  _473
REMARK  177  A    between atoms: _473  and  _474
REMARK  178  A    between atoms: _483  and  _485
REMARK  179  A    between atoms: _485  and  _486
REMARK  180  A    between atoms: _485  and  _488
REMARK  181  A    between atoms: _488  and  _489
REMARK  182  A    between atoms: _489  and  _490
REMARK  183  A    between atoms: _493  and  _495
REMARK  184  A    between atoms: _495  and  _496
REMARK  185  A    between atoms: _498  and  _500
REMARK  186  A    between atoms: _500  and  _501
REMARK  187  A    between atoms: _500  and  _503
REMARK  188  A    between atoms: _503  and  _504
REMARK  189  A    between atoms: _510  and  _511
REMARK  190  A    between atoms: _516  and  _518
REMARK  191  A    between atoms: _518  and  _519
REMARK  192  A    between atoms: _521  and  _523
REMARK  193  A    between atoms: _523  and  _524
REMARK  194  A    between atoms: _523  and  _526
REMARK  195  A    between atoms: _526  and  _527
REMARK  196  A    between atoms: _533  and  _535
REMARK  197  A    between atoms: _535  and  _536
REMARK  198  A    between atoms: _535  and  _538
REMARK  199  A    between atoms: _538  and  _539
REMARK  200  A    between atoms: _544  and  _546
REMARK  201  A    between atoms: _546  and  _547
REMARK  202  A    between atoms: _546  and  _549
REMARK  203  A    between atoms: _549  and  _550
REMARK  204  A    between atoms: _550  and  _551
REMARK  205  A    between atoms: _551  and  _552
REMARK  206  A    between atoms: _552  and  ZN_793
REMARK  207  A    between atoms: _554  and  _556
REMARK  208  A    between atoms: _556  and  _557
REMARK  209  A    between atoms: _560  and  _562
REMARK  210  A    between atoms: _562  and  _563
REMARK  211  A    between atoms: _562  and  _565
REMARK  212  A    between atoms: _565  and  _566
REMARK  213  A    between atoms: _569  and  _571
REMARK  214  A    between atoms: _571  and  _572
REMARK  215  A    between atoms: _575  and  _577
REMARK  216  A    between atoms: _577  and  _578
REMARK  217  A    between atoms: _577  and  _580
REMARK  218  A    between atoms: _580  and  _581
REMARK  219  A    between atoms: _584  and  _586
REMARK  220  A    between atoms: _586  and  _587
REMARK  221  A    between atoms: _586  and  _589
REMARK  222  A    between atoms: _589  and  _590
REMARK  223  A    between atoms: _590  and  _591
REMARK  224  A    between atoms: _591  and  _592
REMARK  225  A    between atoms: _592  and  _593
REMARK  226  A    between atoms: _597  and  _599
REMARK  227  A    between atoms: _599  and  _600
REMARK  228  A    between atoms: _599  and  _602
REMARK  229  A    between atoms: _602  and  _603
REMARK  230  A    between atoms: _609  and  _611
REMARK  231  A    between atoms: _611  and  _612
REMARK  232  A    between atoms: _611  and  _614
REMARK  233  A    between atoms: _614  and  _615
REMARK  234  A    between atoms: _621  and  _623
REMARK  235  A    between atoms: _623  and  _624
REMARK  236  A    between atoms: _623  and  _626
REMARK  237  A    between atoms: _626  and  _627
REMARK  238  A    between atoms: _629  and  _631
REMARK  239  A    between atoms: _631  and  _632
REMARK  240  A    between atoms: _631  and  _634
REMARK  241  A    between atoms: _637  and  _639
REMARK  242  A    between atoms: _639  and  _640
REMARK  243  A    between atoms: _639  and  _642
REMARK  244  A    between atoms: _642  and  _643
REMARK  245  A    between atoms: _643  and  _644
REMARK  246  A    between atoms: _644  and  _645
REMARK  247  A    between atoms: _645  and  _646
REMARK  248  A    between atoms: _650  and  _652
REMARK  249  A    between atoms: _652  and  _653
REMARK  250  A    between atoms: _652  and  _655
REMARK  251  A    between atoms: _655  and  _656
REMARK  252  A    between atoms: _662  and  _664
REMARK  253  A    between atoms: _664  and  _665
REMARK  254  A    between atoms: _664  and  _667
REMARK  255  A    between atoms: _667  and  _668
REMARK  256  A    between atoms: _673  and  _675
REMARK  257  A    between atoms: _675  and  _676
REMARK  258  A    between atoms: _675  and  _678
REMARK  259  A    between atoms: _678  and  _679
REMARK  260  A    between atoms: _681  and  _683
REMARK  261  A    between atoms: _683  and  _684
REMARK  262  A    between atoms: _683  and  _686
REMARK  263  A    between atoms: _686  and  _687
REMARK  264  A    between atoms: _689  and  _691
REMARK  265  A    between atoms: _691  and  _692
REMARK  266  A    between atoms: _691  and  _694
REMARK  267  A    between atoms: _698  and  _699
REMARK  268  A    between atoms: _704  and  _706
REMARK  269  A    between atoms: _706  and  _707
REMARK  270  A    between atoms: _706  and  _709
REMARK  271  A    between atoms: _709  and  _710
REMARK  272  A    between atoms: _715  and  _716
REMARK  273  A    between atoms: _718  and  _720
REMARK  274  A    between atoms: _720  and  _721
REMARK  275  A    between atoms: _720  and  _723
REMARK  276  A    between atoms: _723  and  _724
REMARK  277  A    between atoms: _724  and  _725
REMARK  278  A    between atoms: _725  and  _726
REMARK  279  A    between atoms: _735  and  _737
REMARK  280  A    between atoms: _737  and  _738
REMARK  281  A    between atoms: _737  and  _740
REMARK  282  A    between atoms: _740  and  _741
REMARK  283  A    between atoms: _746  and  _747
REMARK  284  A    between atoms: _749  and  _751
REMARK  285  A    between atoms: _751  and  _752
REMARK  286  A    between atoms: _751  and  _754
REMARK  287  A    between atoms: _754  and  _755
REMARK  288  A    between atoms: _761  and  _763
REMARK  289  A    between atoms: _763  and  _764
REMARK  290  A    between atoms: _763  and  _766
REMARK  291  A    between atoms: _766  and  _767
REMARK  292  A    between atoms: _769  and  _771
REMARK  293  A    between atoms: _771  and  _772
REMARK  294  A    between atoms: _771  and  _774
REMARK  295  A    between atoms: _774  and  _775
REMARK  296  A    between atoms: _781  and  _783
REMARK  297  A    between atoms: _783  and  _784
REMARK  298  A    between atoms: _783  and  _786
REMARK  299  A    between atoms: _786  and  _787
REMARK  300  A    between atoms: _787  and  _788
REMARK                            x       y       z     vdW  Elec       q    Type
REMARK                         _______ _______ _______ _____ _____    ______ ____
ROOT
ATOM      1  CB  GLN A   1      20.860   0.466 -29.283  0.00  0.00    +0.035 C 
ENDROOT
BRANCH   1   2
ATOM      2  CA  GLN A   1      21.124   1.912 -29.689  0.00  0.00    +0.134 C 
BRANCH   2   3
ATOM      3  N   GLN A   1      19.882   2.633 -30.002  0.00  0.00    -0.239 NA
ATOM      4  H   GLN A   1      18.974   2.131 -30.076  0.00  0.00    +0.142 HD
ENDBRANCH   2   3
BRANCH   2   5
ATOM      5  C   GLN A   1      22.111   2.000 -30.861  0.00  0.00    +0.224 C 
ATOM      6  O   GLN A   1      23.322   2.034 -30.655  0.00  0.00    -0.287 OA
ENDBRANCH   2   5
ENDBRANCH   1   2
BRANCH   1   7
ATOM      7  CG  GLN A   1      20.310  -0.409 -30.393  0.00  0.00    +0.087 C 
BRANCH   7   8
ATOM      8  CD  GLN A   1      19.895  -1.774 -29.881  0.00  0.00    +0.219 C 
ATOM      9  NE2 GLN A   1      18.956  -1.812 -28.915  0.00  0.00    -0.329 N 
ATOM     10 HE21 GLN A   1      18.647  -2.726 -28.526  0.00  0.00    +0.145 HD
ATOM     11 HE22 GLN A   1      18.540  -0.928 -28.559  0.00  0.00    +0.145 HD
ATOM     12  OE1 GLN A   1      20.421  -2.785 -30.340  0.00  0.00    -0.275 OA
ENDBRANCH   7   8
ENDBRANCH   1   7
TORSDOF 5
REMARK  Name = ../refined-set-2016/4ca5/4ca5_pocket.pdb
REMARK  300 active torsions:
REMARK  status: ('A' for Active; 'I' for Inactive)
REMARK    1  A    between atoms: _1  and  _3
REMARK    2  A    between atoms: _3  and  _4
REMARK    3  A    between atoms: _3  and  _6
REMARK    4  A    between atoms: _6  and  _7
REMARK    5  A    between atoms: _12  and  _14
REMARK    6  A    between atoms: _14  and  _15
REMARK    7  A    between atoms: _14  and  _17
REMARK    8  A    between atoms: _17  and  _18
REMARK    9  A    between atoms: _23  and  _25
REMARK   10  A    between atoms: _25  and  _26
REMARK   11  A    between atoms: _25  and  _28
REMARK   12  A    between atoms: _28  and  _29
REMARK   13  A    between atoms: _29  and  _30
REMARK   14  A    between atoms: _33  and  _35
REMARK   15  A    between atoms: _35  and  _36
REMARK   16  A    between atoms: _35  and  _38
REMARK   17  A    between atoms: _38  and  _39
REMARK   18  A    between atoms: _44  and  _45
REMARK   19  A    between atoms: _47  and  _49
REMARK   20  A    between atoms: _49  and  _50
REMARK   21  A    between atoms: _49  and  _52
REMARK   22  A    between atoms: _52  and  _53
REMARK   23  A    between atoms: _53  and  _54
REMARK   24  A    between atoms: _57  and  _59
REMARK   25  A    between atoms: _59  and  _60
REMARK   26  A    between atoms: _59  and  _62
REMARK   27  A    between atoms: _62  and  _63
REMARK   28  A    between atoms: _66  and  _68
REMARK   29  A    between atoms: _68  and  _69
REMARK   30  A    between atoms: _71  and  _73
REMARK   31  A    between atoms: _73  and  _74
REMARK   32  A    between atoms: _73  and  _76
REMARK   33  A    between atoms: _76  and  _77
REMARK   34  A    between atoms: _82  and  _84
REMARK   35  A    between atoms: _84  and  _85
REMARK   36  A    between atoms: _84  and  _87
REMARK   37  A    between atoms: _87  and  _88
REMARK   38  A    between atoms: _88  and  _89
REMARK   39  A    between atoms: _91  and  _93
REMARK   40  A    between atoms: _93  and  _94
REMARK   41  A    between atoms: _93  and  _96
REMARK   42  A    between atoms: _96  and  _97
REMARK   43  A    between atoms: _107  and  _109
REMARK   44  A    between atoms: _109  and  _110
REMARK   45  A    between atoms: _109  and  _112
REMARK   46  A    between atoms: _112  and  _113
REMARK   47  A    between atoms: _113  and  _114
REMARK   48  A    between atoms: _119  and  _121
REMARK   49  A    between atoms: _121  and  _122
REMARK   50  A    between atoms: _121  and  _124
REMARK   51  A    between atoms: _124  and  _125
REMARK   52  A    between atoms: _128  and  _130
REMARK   53  A    between atoms: _130  and  _131
REMARK   54  A    between atoms: _130  and  _133
REMARK   55  A    between atoms: _133  and  _134
REMARK   56  A    between atoms: _144  and  _146
REMARK   57  A    between atoms: _146  and  _147
REMARK   58  A    between atoms: _146  and  _149
REMARK   59  A    between atoms: _149  and  _150
REMARK   60  A    between atoms: _152  and  _154
REMARK   61  A    between atoms: _154  and  _155
REMARK   62  A    between atoms: _154  and  _157
REMARK   63  A    between atoms: _157  and  _158
REMARK   64  A    between atoms: _163  and  _165
REMARK   65  A    between atoms: _165  and  _166
REMARK   66  A    between atoms: _165  and  _168
REMARK   67  A    between atoms: _171  and  _173
REMARK   68  A    between atoms: _173  and  _174
REMARK   69  A    between atoms: _173  and  _176
REMARK   70  A    between atoms: _178  and  _180
REMARK   71  A    between atoms: _180  and  _181
REMARK   72  A    between atoms: _180  and  _183
REMARK   73  A    between atoms: _183  and  _184
REMARK   74  A    between atoms: _189  and  _191
REMARK   75  A    between atoms: _191  and  _192
REMARK   76  A    between atoms: _195  and  _197
REMARK   77  A    between atoms: _197  and  _198
REMARK   78  A    between atoms: _197  and  _200
REMARK   79  A    between atoms: _200  and  _201
REMARK   80  A    between atoms: _203  and  _205
REMARK   81  A    between atoms: _205  and  _206
REMARK   82  A    between atoms: _209  and  _211
REMARK   83  A    between atoms: _211  and  _212
REMARK   84  A    between atoms: _211  and  _214
REMARK   85  A    between atoms: _214  and  _215
REMARK   86  A    between atoms: _225  and  _227
REMARK   87  A    between atoms: _227  and  _228
REMARK   88  A    between atoms: _227  and  _230
REMARK   89  A    between atoms: _230  and  _231
REMARK   90  A    between atoms: _234  and  _236
REMARK   91  A    between atoms: _236  and  _237
REMARK   92  A    between atoms: _236  and  _239
REMARK   93  A    between atoms: _239  and  _240
REMARK   94  A    between atoms: _245  and  _246
REMARK   95  A    between atoms: _248  and  _250
REMARK   96  A    between atoms: _250  and  _251
REMARK   97  A    between atoms: _250  and  _253
REMARK   98  A    between atoms: _253  and  _254
REMARK   99  A    between atoms: _254  and  _255
REMARK  100  A    between atoms: _255  and  _256
REMARK  101  A    between atoms: _265  and  _267
REMARK  102  A    between atoms: _267  and  _268
REMARK  103  A    between atoms: _267  and  _270
REMARK  104  A    between atoms: _270  and  _271
REMARK  105  A    between atoms: _274  and  _276
REMARK  106  A    between atoms: _276  and  _277
REMARK  107  A    between atoms: _276  and  _279
REMARK  108  A    between atoms: _279  and  _280
REMARK  109  A    between atoms: _280  and  _281
REMARK  110  A    between atoms: _281  and  _282
REMARK  111  A    between atoms: _282  and  _283
REMARK  112  A    between atoms: _287  and  _289
REMARK  113  A    between atoms: _289  and  _290
REMARK  114  A    between atoms: _289  and  _292
REMARK  115  A    between atoms: _292  and  _293
REMARK  116  A    between atoms: _293  and  _294
REMARK  117  A    between atoms: _299  and  _301
REMARK  118  A    between atoms: _301  and  _302
REMARK  119  A    between atoms: _301  and  _304
REMARK  120  A    between atoms: _304  and  _305
REMARK  121  A    between atoms: _310  and  _312
REMARK  122  A    between atoms: _312  and  _313
REMARK  123  A    between atoms: _312  and  _315
REMARK  124  A    between atoms: _315  and  _316
REMARK  125  A    between atoms: _319  and  _321
REMARK  126  A    between atoms: _321  and  _322
REMARK  127  A    between atoms: _321  and  _324
REMARK  128  A    between atoms: _324  and  _325
REMARK  129  A    between atoms: _325  and  _326
REMARK  130  A    between atoms: _329  and  _331
REMARK  131  A    between atoms: _331  and  _332
REMARK  132  A    between atoms: _331  and  _334
REMARK  133  A    between atoms: _334  and  _335
REMARK  134  A    between atoms: _338  and  _340
REMARK  135  A    between atoms: _340  and  _341
REMARK  136  A    between atoms: _340  and  _343
REMARK  137  A    between atoms: _346  and  _348
REMARK  138  A    between atoms: _348  and  _349
REMARK  139  A    between atoms: _348  and  _351
REMARK  140  A    between atoms: _354  and  _356
REMARK  141  A    between atoms: _356  and  _357
REMARK  142  A    between atoms: _360  and  _362
REMARK  143  A    between atoms: _362  and  _363
REMARK  144  A    between atoms: _362  and  _365
REMARK  145  A    between atoms: _365  and  _366
REMARK  146  A    between atoms: _371  and  _373
REMARK  147  A    between atoms: _384  and  _387
REMARK  148  A    between atoms: _387  and  _388
REMARK  149  A    between atoms: _388  and  _389
REMARK  150  A    between atoms: _394  and  _397
REMARK  151  A    between atoms: _397  and  _398
REMARK  152  A    between atoms: _398  and  _399
REMARK  153  A    between atoms: _408  and  _409
REMARK  154  A    between atoms: _417  and  _419
REMARK  155  A    between atoms: _419  and  _420
REMARK  156  A    between atoms: _419  and  _422
REMARK  157  A    between atoms: _422  and  _423
REMARK  158  A    between atoms: _426  and  _428
REMARK  159  A    between atoms: _428  and  _429
REMARK  160  A    between atoms: _428  and  _431
REMARK  161  A    between atoms: _431  and  _432
REMARK  162  A    between atoms: _437  and  _438
REMARK  163  A    between atoms: _440  and  _442
REMARK  164  A    between atoms: _442  and  _443
REMARK  165  A    between atoms: _442  and  _445
REMARK  166  A    between atoms: _445  and  _446
REMARK  167  A    between atoms: _452  and  _454
REMARK  168  A    between atoms: _454  and  _455
REMARK  169  A    between atoms: _454  and  _457
REMARK  170  A    between atoms: _457  and  _458
REMARK  171  A    between atoms: _463  and  _464
REMARK  172  A    between atoms: _466  and  _468
REMARK  173  A    between atoms: _468  and  _469
REMARK  174  A    between atoms: _468  and  _471
REMARK  175  A    between atoms: _471  and  _472
REMARK  176  A    between atoms: _472  and  _473
REMARK  177  A    between atoms: _473  and  _474
REMARK  178  A    between atoms: _483  and  _485
REMARK  179  A    between atoms: _485  and  _486
REMARK  180  A    between atoms: _485  and  _488
REMARK  181  A    between atoms: _488  and  _489
REMARK  182  A    between atoms: _489  and  _490
REMARK  183  A    between atoms: _493  and  _495
REMARK  184  A    between atoms: _495  and  _496
REMARK  185  A    between atoms: _498  and  _500
REMARK  186  A    between atoms: _500  and  _501
REMARK  187  A    between atoms: _500  and  _503
REMARK  188  A    between atoms: _503  and  _504
REMARK  189  A    between atoms: _510  and  _511
REMARK  190  A    between atoms: _516  and  _518
REMARK  191  A    between atoms: _518  and  _519
REMARK  192  A    between atoms: _521  and  _523
REMARK  193  A    between atoms: _523  and  _524
REMARK  194  A    between atoms: _523  and  _526
REMARK  195  A    between atoms: _526  and  _527
REMARK  196  A    between atoms: _533  and  _535
REMARK  197  A    between atoms: _535  and  _536
REMARK  198  A    between atoms: _535  and  _538
REMARK  199  A    between atoms: _538  and  _539
REMARK  200  A    between atoms: _544  and  _546
REMARK  201  A    between atoms: _546  and  _547
REMARK  202  A    between atoms: _546  and  _549
REMARK  203  A    between atoms: _549  and  _550
REMARK  204  A    between atoms: _550  and  _551
REMARK  205  A    between atoms: _551  and  _552
REMARK  206  A    between atoms: _552  and  ZN_793
REMARK  207  A    between atoms: _554  and  _556
REMARK  208  A    between atoms: _556  and  _557
REMARK  209  A    between atoms: _560  and  _562
REMARK  210  A    between atoms: _562  and  _563
REMARK  211  A    between atoms: _562  and  _565
REMARK  212  A    between atoms: _565  and  _566
REMARK  213  A    between atoms: _569  and  _571
REMARK  214  A    between atoms: _571  and  _572
REMARK  215  A    between atoms: _575  and  _577
REMARK  216  A    between atoms: _577  and  _578
REMARK  217  A    between atoms: _577  and  _580
REMARK  218  A    between atoms: _580  and  _581
REMARK  219  A    between atoms: _584  and  _586
REMARK  220  A    between atoms: _586  and  _587
REMARK  221  A    between atoms: _586  and  _589
REMARK  222  A    between atoms: _589  and  _590
REMARK  223  A    between atoms: _590  and  _591
REMARK  224  A    between atoms: _591  and  _592
REMARK  225  A    between atoms: _592  and  _593
REMARK  226  A    between atoms: _597  and  _599
REMARK  227  A    between atoms: _599  and  _600
REMARK  228  A    between atoms: _599  and  _602
REMARK  229  A    between atoms: _602  and  _603
REMARK  230  A    between atoms: _609  and  _611
REMARK  231  A    between atoms: _611  and  _612
REMARK  232  A    between atoms: _611  and  _614
REMARK  233  A    between atoms: _614  and  _615
REMARK  234  A    between atoms: _621  and  _623
REMARK  235  A    between atoms: _623  and  _624
REMARK  236  A    between atoms: _623  and  _626
REMARK  237  A    between atoms: _626  and  _627
REMARK  238  A    between atoms: _629  and  _631
REMARK  239  A    between atoms: _631  and  _632
REMARK  240  A    between atoms: _631  and  _634
REMARK  241  A    between atoms: _637  and  _639
REMARK  242  A    between atoms: _639  and  _640
REMARK  243  A    between atoms: _639  and  _642
REMARK  244  A    between atoms: _642  and  _643
REMARK  245  A    between atoms: _643  and  _644
REMARK  246  A    between atoms: _644  and  _645
REMARK  247  A    between atoms: _645  and  _646
REMARK  248  A    between atoms: _650  and  _652
REMARK  249  A    between atoms: _652  and  _653
REMARK  250  A    between atoms: _652  and  _655
REMARK  251  A    between atoms: _655  and  _656
REMARK  252  A    between atoms: _662  and  _664
REMARK  253  A    between atoms: _664  and  _665
REMARK  254  A    between atoms: _664  and  _667
REMARK  255  A    between atoms: _667  and  _668
REMARK  256  A    between atoms: _673  and  _675
REMARK  257  A    between atoms: _675  and  _676
REMARK  258  A    between atoms: _675  and  _678
REMARK  259  A    between atoms: _678  and  _679
REMARK  260  A    between atoms: _681  and  _683
REMARK  261  A    between atoms: _683  and  _684
REMARK  262  A    between atoms: _683  and  _686
REMARK  263  A    between atoms: _686  and  _687
REMARK  264  A    between atoms: _689  and  _691
REMARK  265  A    between atoms: _691  and  _692
REMARK  266  A    between atoms: _691  and  _694
REMARK  267  A    between atoms: _698  and  _699
REMARK  268  A    between atoms: _704  and  _706
REMARK  269  A    between atoms: _706  and  _707
REMARK  270  A    between atoms: _706  and  _709
REMARK  271  A    between atoms: _709  and  _710
REMARK  272  A    between atoms: _715  and  _716
REMARK  273  A    between atoms: _718  and  _720
REMARK  274  A    between atoms: _720  and  _721
REMARK  275  A    between atoms: _720  and  _723
REMARK  276  A    between atoms: _723  and  _724
REMARK  277  A    between atoms: _724  and  _725
REMARK  278  A    between atoms: _725  and  _726
REMARK  279  A    between atoms: _735  and  _737
REMARK  280  A    between atoms: _737  and  _738
REMARK  281  A    between atoms: _737  and  _740
REMARK  282  A    between atoms: _740  and  _741
REMARK  283  A    between atoms: _746  and  _747
REMARK  284  A    between atoms: _749  and  _751
REMARK  285  A    between atoms: _751  and  _752
REMARK  286  A    between atoms: _751  and  _754
REMARK  287  A    between atoms: _754  and  _755
REMARK  288  A    between atoms: _761  and  _763
REMARK  289  A    between atoms: _763  and  _764
REMARK  290  A    between atoms: _763  and  _766
REMARK  291  A    between atoms: _766  and  _767
REMARK  292  A    between atoms: _769  and  _771
REMARK  293  A    between atoms: _771  and  _772
REMARK  294  A    between atoms: _771  and  _774
REMARK  295  A    between atoms: _774  and  _775
REMARK  296  A    between atoms: _781  and  _783
REMARK  297  A    between atoms: _783  and  _784
REMARK  298  A    between atoms: _783  and  _786
REMARK  299  A    between atoms: _786  and  _787
REMARK  300  A    between atoms: _787  and  _788
REMARK                            x       y       z     vdW  Elec       q    Type
REMARK                         _______ _______ _______ _____ _____    ______ ____
ROOT
ATOM      1  O   HOH     1       8.873 -10.008 -12.628  0.00  0.00    +0.000 OA
ENDROOT
TORSDOF 0
REMARK  Name = ../refined-set-2016/4ca5/4ca5_pocket.pdb
REMARK  300 active torsions:
REMARK  status: ('A' for Active; 'I' for Inactive)
REMARK    1  A    between atoms: _1  and  _3
REMARK    2  A    between atoms: _3  and  _4
REMARK    3  A    between atoms: _3  and  _6
REMARK    4  A    between atoms: _6  and  _7
REMARK    5  A    between atoms: _12  and  _14
REMARK    6  A    between atoms: _14  and  _15
REMARK    7  A    between atoms: _14  and  _17
REMARK    8  A    between atoms: _17  and  _18
REMARK    9  A    between atoms: _23  and  _25
REMARK   10  A    between atoms: _25  and  _26
REMARK   11  A    between atoms: _25  and  _28
REMARK   12  A    between atoms: _28  and  _29
REMARK   13  A    between atoms: _29  and  _30
REMARK   14  A    between atoms: _33  and  _35
REMARK   15  A    between atoms: _35  and  _36
REMARK   16  A    between atoms: _35  and  _38
REMARK   17  A    between atoms: _38  and  _39
REMARK   18  A    between atoms: _44  and  _45
REMARK   19  A    between atoms: _47  and  _49
REMARK   20  A    between atoms: _49  and  _50
REMARK   21  A    between atoms: _49  and  _52
REMARK   22  A    between atoms: _52  and  _53
REMARK   23  A    between atoms: _53  and  _54
REMARK   24  A    between atoms: _57  and  _59
REMARK   25  A    between atoms: _59  and  _60
REMARK   26  A    between atoms: _59  and  _62
REMARK   27  A    between atoms: _62  and  _63
REMARK   28  A    between atoms: _66  and  _68
REMARK   29  A    between atoms: _68  and  _69
REMARK   30  A    between atoms: _71  and  _73
REMARK   31  A    between atoms: _73  and  _74
REMARK   32  A    between atoms: _73  and  _76
REMARK   33  A    between atoms: _76  and  _77
REMARK   34  A    between atoms: _82  and  _84
REMARK   35  A    between atoms: _84  and  _85
REMARK   36  A    between atoms: _84  and  _87
REMARK   37  A    between atoms: _87  and  _88
REMARK   38  A    between atoms: _88  and  _89
REMARK   39  A    between atoms: _91  and  _93
REMARK   40  A    between atoms: _93  and  _94
REMARK   41  A    between atoms: _93  and  _96
REMARK   42  A    between atoms: _96  and  _97
REMARK   43  A    between atoms: _107  and  _109
REMARK   44  A    between atoms: _109  and  _110
REMARK   45  A    between atoms: _109  and  _112
REMARK   46  A    between atoms: _112  and  _113
REMARK   47  A    between atoms: _113  and  _114
REMARK   48  A    between atoms: _119  and  _121
REMARK   49  A    between atoms: _121  and  _122
REMARK   50  A    between atoms: _121  and  _124
REMARK   51  A    between atoms: _124  and  _125
REMARK   52  A    between atoms: _128  and  _130
REMARK   53  A    between atoms: _130  and  _131
REMARK   54  A    between atoms: _130  and  _133
REMARK   55  A    between atoms: _133  and  _134
REMARK   56  A    between atoms: _144  and  _146
REMARK   57  A    between atoms: _146  and  _147
REMARK   58  A    between atoms: _146  and  _149
REMARK   59  A    between atoms: _149  and  _150
REMARK   60  A    between atoms: _152  and  _154
REMARK   61  A    between atoms: _154  and  _155
REMARK   62  A    between atoms: _154  and  _157
REMARK   63  A    between atoms: _157  and  _158
REMARK   64  A    between atoms: _163  and  _165
REMARK   65  A    between atoms: _165  and  _166
REMARK   66  A    between atoms: _165  and  _168
REMARK   67  A    between atoms: _171  and  _173
REMARK   68  A    between atoms: _173  and  _174
REMARK   69  A    between atoms: _173  and  _176
REMARK   70  A    between atoms: _178  and  _180
REMARK   71  A    between atoms: _180  and  _181
REMARK   72  A    between atoms: _180  and  _183
REMARK   73  A    between atoms: _183  and  _184
REMARK   74  A    between atoms: _189  and  _191
REMARK   75  A    between atoms: _191  and  _192
REMARK   76  A    between atoms: _195  and  _197
REMARK   77  A    between atoms: _197  and  _198
REMARK   78  A    between atoms: _197  and  _200
REMARK   79  A    between atoms: _200  and  _201
REMARK   80  A    between atoms: _203  and  _205
REMARK   81  A    between atoms: _205  and  _206
REMARK   82  A    between atoms: _209  and  _211
REMARK   83  A    between atoms: _211  and  _212
REMARK   84  A    between atoms: _211  and  _214
REMARK   85  A    between atoms: _214  and  _215
REMARK   86  A    between atoms: _225  and  _227
REMARK   87  A    between atoms: _227  and  _228
REMARK   88  A    between atoms: _227  and  _230
REMARK   89  A    between atoms: _230  and  _231
REMARK   90  A    between atoms: _234  and  _236
REMARK   91  A    between atoms: _236  and  _237
REMARK   92  A    between atoms: _236  and  _239
REMARK   93  A    between atoms: _239  and  _240
REMARK   94  A    between atoms: _245  and  _246
REMARK   95  A    between atoms: _248  and  _250
REMARK   96  A    between atoms: _250  and  _251
REMARK   97  A    between atoms: _250  and  _253
REMARK   98  A    between atoms: _253  and  _254
REMARK   99  A    between atoms: _254  and  _255
REMARK  100  A    between atoms: _255  and  _256
REMARK  101  A    between atoms: _265  and  _267
REMARK  102  A    between atoms: _267  and  _268
REMARK  103  A    between atoms: _267  and  _270
REMARK  104  A    between atoms: _270  and  _271
REMARK  105  A    between atoms: _274  and  _276
REMARK  106  A    between atoms: _276  and  _277
REMARK  107  A    between atoms: _276  and  _279
REMARK  108  A    between atoms: _279  and  _280
REMARK  109  A    between atoms: _280  and  _281
REMARK  110  A    between atoms: _281  and  _282
REMARK  111  A    between atoms: _282  and  _283
REMARK  112  A    between atoms: _287  and  _289
REMARK  113  A    between atoms: _289  and  _290
REMARK  114  A    between atoms: _289  and  _292
REMARK  115  A    between atoms: _292  and  _293
REMARK  116  A    between atoms: _293  and  _294
REMARK  117  A    between atoms: _299  and  _301
REMARK  118  A    between atoms: _301  and  _302
REMARK  119  A    between atoms: _301  and  _304
REMARK  120  A    between atoms: _304  and  _305
REMARK  121  A    between atoms: _310  and  _312
REMARK  122  A    between atoms: _312  and  _313
REMARK  123  A    between atoms: _312  and  _315
REMARK  124  A    between atoms: _315  and  _316
REMARK  125  A    between atoms: _319  and  _321
REMARK  126  A    between atoms: _321  and  _322
REMARK  127  A    between atoms: _321  and  _324
REMARK  128  A    between atoms: _324  and  _325
REMARK  129  A    between atoms: _325  and  _326
REMARK  130  A    between atoms: _329  and  _331
REMARK  131  A    between atoms: _331  and  _332
REMARK  132  A    between atoms: _331  and  _334
REMARK  133  A    between atoms: _334  and  _335
REMARK  134  A    between atoms: _338  and  _340
REMARK  135  A    between atoms: _340  and  _341
REMARK  136  A    between atoms: _340  and  _343
REMARK  137  A    between atoms: _346  and  _348
REMARK  138  A    between atoms: _348  and  _349
REMARK  139  A    between atoms: _348  and  _351
REMARK  140  A    between atoms: _354  and  _356
REMARK  141  A    between atoms: _356  and  _357
REMARK  142  A    between atoms: _360  and  _362
REMARK  143  A    between atoms: _362  and  _363
REMARK  144  A    between atoms: _362  and  _365
REMARK  145  A    between atoms: _365  and  _366
REMARK  146  A    between atoms: _371  and  _373
REMARK  147  A    between atoms: _384  and  _387
REMARK  148  A    between atoms: _387  and  _388
REMARK  149  A    between atoms: _388  and  _389
REMARK  150  A    between atoms: _394  and  _397
REMARK  151  A    between atoms: _397  and  _398
REMARK  152  A    between atoms: _398  and  _399
REMARK  153  A    between atoms: _408  and  _409
REMARK  154  A    between atoms: _417  and  _419
REMARK  155  A    between atoms: _419  and  _420
REMARK  156  A    between atoms: _419  and  _422
REMARK  157  A    between atoms: _422  and  _423
REMARK  158  A    between atoms: _426  and  _428
REMARK  159  A    between atoms: _428  and  _429
REMARK  160  A    between atoms: _428  and  _431
REMARK  161  A    between atoms: _431  and  _432
REMARK  162  A    between atoms: _437  and  _438
REMARK  163  A    between atoms: _440  and  _442
REMARK  164  A    between atoms: _442  and  _443
REMARK  165  A    between atoms: _442  and  _445
REMARK  166  A    between atoms: _445  and  _446
REMARK  167  A    between atoms: _452  and  _454
REMARK  168  A    between atoms: _454  and  _455
REMARK  169  A    between atoms: _454  and  _457
REMARK  170  A    between atoms: _457  and  _458
REMARK  171  A    between atoms: _463  and  _464
REMARK  172  A    between atoms: _466  and  _468
REMARK  173  A    between atoms: _468  and  _469
REMARK  174  A    between atoms: _468  and  _471
REMARK  175  A    between atoms: _471  and  _472
REMARK  176  A    between atoms: _472  and  _473
REMARK  177  A    between atoms: _473  and  _474
REMARK  178  A    between atoms: _483  and  _485
REMARK  179  A    between atoms: _485  and  _486
REMARK  180  A    between atoms: _485  and  _488
REMARK  181  A    between atoms: _488  and  _489
REMARK  182  A    between atoms: _489  and  _490
REMARK  183  A    between atoms: _493  and  _495
REMARK  184  A    between atoms: _495  and  _496
REMARK  185  A    between atoms: _498  and  _500
REMARK  186  A    between atoms: _500  and  _501
REMARK  187  A    between atoms: _500  and  _503
REMARK  188  A    between atoms: _503  and  _504
REMARK  189  A    between atoms: _510  and  _511
REMARK  190  A    between atoms: _516  and  _518
REMARK  191  A    between atoms: _518  and  _519
REMARK  192  A    between atoms: _521  and  _523
REMARK  193  A    between atoms: _523  and  _524
REMARK  194  A    between atoms: _523  and  _526
REMARK  195  A    between atoms: _526  and  _527
REMARK  196  A    between atoms: _533  and  _535
REMARK  197  A    between atoms: _535  and  _536
REMARK  198  A    between atoms: _535  and  _538
REMARK  199  A    between atoms: _538  and  _539
REMARK  200  A    between atoms: _544  and  _546
REMARK  201  A    between atoms: _546  and  _547
REMARK  202  A    between atoms: _546  and  _549
REMARK  203  A    between atoms: _549  and  _550
REMARK  204  A    between atoms: _550  and  _551
REMARK  205  A    between atoms: _551  and  _552
REMARK  206  A    between atoms: _552  and  ZN_793
REMARK  207  A    between atoms: _554  and  _556
REMARK  208  A    between atoms: _556  and  _557
REMARK  209  A    between atoms: _560  and  _562
REMARK  210  A    between atoms: _562  and  _563
REMARK  211  A    between atoms: _562  and  _565
REMARK  212  A    between atoms: _565  and  _566
REMARK  213  A    between atoms: _569  and  _571
REMARK  214  A    between atoms: _571  and  _572
REMARK  215  A    between atoms: _575  and  _577
REMARK  216  A    between atoms: _577  and  _578
REMARK  217  A    between atoms: _577  and  _580
REMARK  218  A    between atoms: _580  and  _581
REMARK  219  A    between atoms: _584  and  _586
REMARK  220  A    between atoms: _586  and  _587
REMARK  221  A    between atoms: _586  and  _589
REMARK  222  A    between atoms: _589  and  _590
REMARK  223  A    between atoms: _590  and  _591
REMARK  224  A    between atoms: _591  and  _592
REMARK  225  A    between atoms: _592  and  _593
REMARK  226  A    between atoms: _597  and  _599
REMARK  227  A    between atoms: _599  and  _600
REMARK  228  A    between atoms: _599  and  _602
REMARK  229  A    between atoms: _602  and  _603
REMARK  230  A    between atoms: _609  and  _611
REMARK  231  A    between atoms: _611  and  _612
REMARK  232  A    between atoms: _611  and  _614
REMARK  233  A    between atoms: _614  and  _615
REMARK  234  A    between atoms: _621  and  _623
REMARK  235  A    between atoms: _623  and  _624
REMARK  236  A    between atoms: _623  and  _626
REMARK  237  A    between atoms: _626  and  _627
REMARK  238  A    between atoms: _629  and  _631
REMARK  239  A    between atoms: _631  and  _632
REMARK  240  A    between atoms: _631  and  _634
REMARK  241  A    between atoms: _637  and  _639
REMARK  242  A    between atoms: _639  and  _640
REMARK  243  A    between atoms: _639  and  _642
REMARK  244  A    between atoms: _642  and  _643
REMARK  245  A    between atoms: _643  and  _644
REMARK  246  A    between atoms: _644  and  _645
REMARK  247  A    between atoms: _645  and  _646
REMARK  248  A    between atoms: _650  and  _652
REMARK  249  A    between atoms: _652  and  _653
REMARK  250  A    between atoms: _652  and  _655
REMARK  251  A    between atoms: _655  and  _656
REMARK  252  A    between atoms: _662  and  _664
REMARK  253  A    between atoms: _664  and  _665
REMARK  254  A    between atoms: _664  and  _667
REMARK  255  A    between atoms: _667  and  _668
REMARK  256  A    between atoms: _673  and  _675
REMARK  257  A    between atoms: _675  and  _676
REMARK  258  A    between atoms: _675  and  _678
REMARK  259  A    between atoms: _678  and  _679
REMARK  260  A    between atoms: _681  and  _683
REMARK  261  A    between atoms: _683  and  _684
REMARK  262  A    between atoms: _683  and  _686
REMARK  263  A    between atoms: _686  and  _687
REMARK  264  A    between atoms: _689  and  _691
REMARK  265  A    between atoms: _691  and  _692
REMARK  266  A    between atoms: _691  and  _694
REMARK  267  A    between atoms: _698  and  _699
REMARK  268  A    between atoms: _704  and  _706
REMARK  269  A    between atoms: _706  and  _707
REMARK  270  A    between atoms: _706  and  _709
REMARK  271  A    between atoms: _709  and  _710
REMARK  272  A    between atoms: _715  and  _716
REMARK  273  A    between atoms: _718  and  _720
REMARK  274  A    between atoms: _720  and  _721
REMARK  275  A    between atoms: _720  and  _723
REMARK  276  A    between atoms: _723  and  _724
REMARK  277  A    between atoms: _724  and  _725
REMARK  278  A    between atoms: _725  and  _726
REMARK  279  A    between atoms: _735  and  _737
REMARK  280  A    between atoms: _737  and  _738
REMARK  281  A    between atoms: _737  and  _740
REMARK  282  A    between atoms: _740  and  _741
REMARK  283  A    between atoms: _746  and  _747
REMARK  284  A    between atoms: _749  and  _751
REMARK  285  A    between atoms: _751  and  _752
REMARK  286  A    between atoms: _751  and  _754
REMARK  287  A    between atoms: _754  and  _755
REMARK  288  A    between atoms: _761  and  _763
REMARK  289  A    between atoms: _763  and  _764
REMARK  290  A    between atoms: _763  and  _766
REMARK  291  A    between atoms: _766  and  _767
REMARK  292  A    between atoms: _769  and  _771
REMARK  293  A    between atoms: _771  and  _772
REMARK  294  A    between atoms: _771  and  _774
REMARK  295  A    between atoms: _774  and  _775
REMARK  296  A    between atoms: _781  and  _783
REMARK  297  A    between atoms: _783  and  _784
REMARK  298  A    between atoms: _783  and  _786
REMARK  299  A    between atoms: _786  and  _787
REMARK  300  A    between atoms: _787  and  _788
REMARK                            x       y       z     vdW  Elec       q    Type
REMARK                         _______ _______ _______ _____ _____    ______ ____
ROOT
ATOM      1  O   HOH     1      16.417 -14.474 -20.556  0.00  0.00    +0.000 OA
ENDROOT
TORSDOF 0
REMARK  Name = ../refined-set-2016/4ca5/4ca5_pocket.pdb
REMARK  300 active torsions:
REMARK  status: ('A' for Active; 'I' for Inactive)
REMARK    1  A    between atoms: _1  and  _3
REMARK    2  A    between atoms: _3  and  _4
REMARK    3  A    between atoms: _3  and  _6
REMARK    4  A    between atoms: _6  and  _7
REMARK    5  A    between atoms: _12  and  _14
REMARK    6  A    between atoms: _14  and  _15
REMARK    7  A    between atoms: _14  and  _17
REMARK    8  A    between atoms: _17  and  _18
REMARK    9  A    between atoms: _23  and  _25
REMARK   10  A    between atoms: _25  and  _26
REMARK   11  A    between atoms: _25  and  _28
REMARK   12  A    between atoms: _28  and  _29
REMARK   13  A    between atoms: _29  and  _30
REMARK   14  A    between atoms: _33  and  _35
REMARK   15  A    between atoms: _35  and  _36
REMARK   16  A    between atoms: _35  and  _38
REMARK   17  A    between atoms: _38  and  _39
REMARK   18  A    between atoms: _44  and  _45
REMARK   19  A    between atoms: _47  and  _49
REMARK   20  A    between atoms: _49  and  _50
REMARK   21  A    between atoms: _49  and  _52
REMARK   22  A    between atoms: _52  and  _53
REMARK   23  A    between atoms: _53  and  _54
REMARK   24  A    between atoms: _57  and  _59
REMARK   25  A    between atoms: _59  and  _60
REMARK   26  A    between atoms: _59  and  _62
REMARK   27  A    between atoms: _62  and  _63
REMARK   28  A    between atoms: _66  and  _68
REMARK   29  A    between atoms: _68  and  _69
REMARK   30  A    between atoms: _71  and  _73
REMARK   31  A    between atoms: _73  and  _74
REMARK   32  A    between atoms: _73  and  _76
REMARK   33  A    between atoms: _76  and  _77
REMARK   34  A    between atoms: _82  and  _84
REMARK   35  A    between atoms: _84  and  _85
REMARK   36  A    between atoms: _84  and  _87
REMARK   37  A    between atoms: _87  and  _88
REMARK   38  A    between atoms: _88  and  _89
REMARK   39  A    between atoms: _91  and  _93
REMARK   40  A    between atoms: _93  and  _94
REMARK   41  A    between atoms: _93  and  _96
REMARK   42  A    between atoms: _96  and  _97
REMARK   43  A    between atoms: _107  and  _109
REMARK   44  A    between atoms: _109  and  _110
REMARK   45  A    between atoms: _109  and  _112
REMARK   46  A    between atoms: _112  and  _113
REMARK   47  A    between atoms: _113  and  _114
REMARK   48  A    between atoms: _119  and  _121
REMARK   49  A    between atoms: _121  and  _122
REMARK   50  A    between atoms: _121  and  _124
REMARK   51  A    between atoms: _124  and  _125
REMARK   52  A    between atoms: _128  and  _130
REMARK   53  A    between atoms: _130  and  _131
REMARK   54  A    between atoms: _130  and  _133
REMARK   55  A    between atoms: _133  and  _134
REMARK   56  A    between atoms: _144  and  _146
REMARK   57  A    between atoms: _146  and  _147
REMARK   58  A    between atoms: _146  and  _149
REMARK   59  A    between atoms: _149  and  _150
REMARK   60  A    between atoms: _152  and  _154
REMARK   61  A    between atoms: _154  and  _155
REMARK   62  A    between atoms: _154  and  _157
REMARK   63  A    between atoms: _157  and  _158
REMARK   64  A    between atoms: _163  and  _165
REMARK   65  A    between atoms: _165  and  _166
REMARK   66  A    between atoms: _165  and  _168
REMARK   67  A    between atoms: _171  and  _173
REMARK   68  A    between atoms: _173  and  _174
REMARK   69  A    between atoms: _173  and  _176
REMARK   70  A    between atoms: _178  and  _180
REMARK   71  A    between atoms: _180  and  _181
REMARK   72  A    between atoms: _180  and  _183
REMARK   73  A    between atoms: _183  and  _184
REMARK   74  A    between atoms: _189  and  _191
REMARK   75  A    between atoms: _191  and  _192
REMARK   76  A    between atoms: _195  and  _197
REMARK   77  A    between atoms: _197  and  _198
REMARK   78  A    between atoms: _197  and  _200
REMARK   79  A    between atoms: _200  and  _201
REMARK   80  A    between atoms: _203  and  _205
REMARK   81  A    between atoms: _205  and  _206
REMARK   82  A    between atoms: _209  and  _211
REMARK   83  A    between atoms: _211  and  _212
REMARK   84  A    between atoms: _211  and  _214
REMARK   85  A    between atoms: _214  and  _215
REMARK   86  A    between atoms: _225  and  _227
REMARK   87  A    between atoms: _227  and  _228
REMARK   88  A    between atoms: _227  and  _230
REMARK   89  A    between atoms: _230  and  _231
REMARK   90  A    between atoms: _234  and  _236
REMARK   91  A    between atoms: _236  and  _237
REMARK   92  A    between atoms: _236  and  _239
REMARK   93  A    between atoms: _239  and  _240
REMARK   94  A    between atoms: _245  and  _246
REMARK   95  A    between atoms: _248  and  _250
REMARK   96  A    between atoms: _250  and  _251
REMARK   97  A    between atoms: _250  and  _253
REMARK   98  A    between atoms: _253  and  _254
REMARK   99  A    between atoms: _254  and  _255
REMARK  100  A    between atoms: _255  and  _256
REMARK  101  A    between atoms: _265  and  _267
REMARK  102  A    between atoms: _267  and  _268
REMARK  103  A    between atoms: _267  and  _270
REMARK  104  A    between atoms: _270  and  _271
REMARK  105  A    between atoms: _274  and  _276
REMARK  106  A    between atoms: _276  and  _277
REMARK  107  A    between atoms: _276  and  _279
REMARK  108  A    between atoms: _279  and  _280
REMARK  109  A    between atoms: _280  and  _281
REMARK  110  A    between atoms: _281  and  _282
REMARK  111  A    between atoms: _282  and  _283
REMARK  112  A    between atoms: _287  and  _289
REMARK  113  A    between atoms: _289  and  _290
REMARK  114  A    between atoms: _289  and  _292
REMARK  115  A    between atoms: _292  and  _293
REMARK  116  A    between atoms: _293  and  _294
REMARK  117  A    between atoms: _299  and  _301
REMARK  118  A    between atoms: _301  and  _302
REMARK  119  A    between atoms: _301  and  _304
REMARK  120  A    between atoms: _304  and  _305
REMARK  121  A    between atoms: _310  and  _312
REMARK  122  A    between atoms: _312  and  _313
REMARK  123  A    between atoms: _312  and  _315
REMARK  124  A    between atoms: _315  and  _316
REMARK  125  A    between atoms: _319  and  _321
REMARK  126  A    between atoms: _321  and  _322
REMARK  127  A    between atoms: _321  and  _324
REMARK  128  A    between atoms: _324  and  _325
REMARK  129  A    between atoms: _325  and  _326
REMARK  130  A    between atoms: _329  and  _331
REMARK  131  A    between atoms: _331  and  _332
REMARK  132  A    between atoms: _331  and  _334
REMARK  133  A    between atoms: _334  and  _335
REMARK  134  A    between atoms: _338  and  _340
REMARK  135  A    between atoms: _340  and  _341
REMARK  136  A    between atoms: _340  and  _343
REMARK  137  A    between atoms: _346  and  _348
REMARK  138  A    between atoms: _348  and  _349
REMARK  139  A    between atoms: _348  and  _351
REMARK  140  A    between atoms: _354  and  _356
REMARK  141  A    between atoms: _356  and  _357
REMARK  142  A    between atoms: _360  and  _362
REMARK  143  A    between atoms: _362  and  _363
REMARK  144  A    between atoms: _362  and  _365
REMARK  145  A    between atoms: _365  and  _366
REMARK  146  A    between atoms: _371  and  _373
REMARK  147  A    between atoms: _384  and  _387
REMARK  148  A    between atoms: _387  and  _388
REMARK  149  A    between atoms: _388  and  _389
REMARK  150  A    between atoms: _394  and  _397
REMARK  151  A    between atoms: _397  and  _398
REMARK  152  A    between atoms: _398  and  _399
REMARK  153  A    between atoms: _408  and  _409
REMARK  154  A    between atoms: _417  and  _419
REMARK  155  A    between atoms: _419  and  _420
REMARK  156  A    between atoms: _419  and  _422
REMARK  157  A    between atoms: _422  and  _423
REMARK  158  A    between atoms: _426  and  _428
REMARK  159  A    between atoms: _428  and  _429
REMARK  160  A    between atoms: _428  and  _431
REMARK  161  A    between atoms: _431  and  _432
REMARK  162  A    between atoms: _437  and  _438
REMARK  163  A    between atoms: _440  and  _442
REMARK  164  A    between atoms: _442  and  _443
REMARK  165  A    between atoms: _442  and  _445
REMARK  166  A    between atoms: _445  and  _446
REMARK  167  A    between atoms: _452  and  _454
REMARK  168  A    between atoms: _454  and  _455
REMARK  169  A    between atoms: _454  and  _457
REMARK  170  A    between atoms: _457  and  _458
REMARK  171  A    between atoms: _463  and  _464
REMARK  172  A    between atoms: _466  and  _468
REMARK  173  A    between atoms: _468  and  _469
REMARK  174  A    between atoms: _468  and  _471
REMARK  175  A    between atoms: _471  and  _472
REMARK  176  A    between atoms: _472  and  _473
REMARK  177  A    between atoms: _473  and  _474
REMARK  178  A    between atoms: _483  and  _485
REMARK  179  A    between atoms: _485  and  _486
REMARK  180  A    between atoms: _485  and  _488
REMARK  181  A    between atoms: _488  and  _489
REMARK  182  A    between atoms: _489  and  _490
REMARK  183  A    between atoms: _493  and  _495
REMARK  184  A    between atoms: _495  and  _496
REMARK  185  A    between atoms: _498  and  _500
REMARK  186  A    between atoms: _500  and  _501
REMARK  187  A    between atoms: _500  and  _503
REMARK  188  A    between atoms: _503  and  _504
REMARK  189  A    between atoms: _510  and  _511
REMARK  190  A    between atoms: _516  and  _518
REMARK  191  A    between atoms: _518  and  _519
REMARK  192  A    between atoms: _521  and  _523
REMARK  193  A    between atoms: _523  and  _524
REMARK  194  A    between atoms: _523  and  _526
REMARK  195  A    between atoms: _526  and  _527
REMARK  196  A    between atoms: _533  and  _535
REMARK  197  A    between atoms: _535  and  _536
REMARK  198  A    between atoms: _535  and  _538
REMARK  199  A    between atoms: _538  and  _539
REMARK  200  A    between atoms: _544  and  _546
REMARK  201  A    between atoms: _546  and  _547
REMARK  202  A    between atoms: _546  and  _549
REMARK  203  A    between atoms: _549  and  _550
REMARK  204  A    between atoms: _550  and  _551
REMARK  205  A    between atoms: _551  and  _552
REMARK  206  A    between atoms: _552  and  ZN_793
REMARK  207  A    between atoms: _554  and  _556
REMARK  208  A    between atoms: _556  and  _557
REMARK  209  A    between atoms: _560  and  _562
REMARK  210  A    between atoms: _562  and  _563
REMARK  211  A    between atoms: _562  and  _565
REMARK  212  A    between atoms: _565  and  _566
REMARK  213  A    between atoms: _569  and  _571
REMARK  214  A    between atoms: _571  and  _572
REMARK  215  A    between atoms: _575  and  _577
REMARK  216  A    between atoms: _577  and  _578
REMARK  217  A    between atoms: _577  and  _580
REMARK  218  A    between atoms: _580  and  _581
REMARK  219  A    between atoms: _584  and  _586
REMARK  220  A    between atoms: _586  and  _587
REMARK  221  A    between atoms: _586  and  _589
REMARK  222  A    between atoms: _589  and  _590
REMARK  223  A    between atoms: _590  and  _591
REMARK  224  A    between atoms: _591  and  _592
REMARK  225  A    between atoms: _592  and  _593
REMARK  226  A    between atoms: _597  and  _599
REMARK  227  A    between atoms: _599  and  _600
REMARK  228  A    between atoms: _599  and  _602
REMARK  229  A    between atoms: _602  and  _603
REMARK  230  A    between atoms: _609  and  _611
REMARK  231  A    between atoms: _611  and  _612
REMARK  232  A    between atoms: _611  and  _614
REMARK  233  A    between atoms: _614  and  _615
REMARK  234  A    between atoms: _621  and  _623
REMARK  235  A    between atoms: _623  and  _624
REMARK  236  A    between atoms: _623  and  _626
REMARK  237  A    between atoms: _626  and  _627
REMARK  238  A    between atoms: _629  and  _631
REMARK  239  A    between atoms: _631  and  _632
REMARK  240  A    between atoms: _631  and  _634
REMARK  241  A    between atoms: _637  and  _639
REMARK  242  A    between atoms: _639  and  _640
REMARK  243  A    between atoms: _639  and  _642
REMARK  244  A    between atoms: _642  and  _643
REMARK  245  A    between atoms: _643  and  _644
REMARK  246  A    between atoms: _644  and  _645
REMARK  247  A    between atoms: _645  and  _646
REMARK  248  A    between atoms: _650  and  _652
REMARK  249  A    between atoms: _652  and  _653
REMARK  250  A    between atoms: _652  and  _655
REMARK  251  A    between atoms: _655  and  _656
REMARK  252  A    between atoms: _662  and  _664
REMARK  253  A    between atoms: _664  and  _665
REMARK  254  A    between atoms: _664  and  _667
REMARK  255  A    between atoms: _667  and  _668
REMARK  256  A    between atoms: _673  and  _675
REMARK  257  A    between atoms: _675  and  _676
REMARK  258  A    between atoms: _675  and  _678
REMARK  259  A    between atoms: _678  and  _679
REMARK  260  A    between atoms: _681  and  _683
REMARK  261  A    between atoms: _683  and  _684
REMARK  262  A    between atoms: _683  and  _686
REMARK  263  A    between atoms: _686  and  _687
REMARK  264  A    between atoms: _689  and  _691
REMARK  265  A    between atoms: _691  and  _692
REMARK  266  A    between atoms: _691  and  _694
REMARK  267  A    between atoms: _698  and  _699
REMARK  268  A    between atoms: _704  and  _706
REMARK  269  A    between atoms: _706  and  _707
REMARK  270  A    between atoms: _706  and  _709
REMARK  271  A    between atoms: _709  and  _710
REMARK  272  A    between atoms: _715  and  _716
REMARK  273  A    between atoms: _718  and  _720
REMARK  274  A    between atoms: _720  and  _721
REMARK  275  A    between atoms: _720  and  _723
REMARK  276  A    between atoms: _723  and  _724
REMARK  277  A    between atoms: _724  and  _725
REMARK  278  A    between atoms: _725  and  _726
REMARK  279  A    between atoms: _735  and  _737
REMARK  280  A    between atoms: _737  and  _738
REMARK  281  A    between atoms: _737  and  _740
REMARK  282  A    between atoms: _740  and  _741
REMARK  283  A    between atoms: _746  and  _747
REMARK  284  A    between atoms: _749  and  _751
REMARK  285  A    between atoms: _751  and  _752
REMARK  286  A    between atoms: _751  and  _754
REMARK  287  A    between atoms: _754  and  _755
REMARK  288  A    between atoms: _761  and  _763
REMARK  289  A    between atoms: _763  and  _764
REMARK  290  A    between atoms: _763  and  _766
REMARK  291  A    between atoms: _766  and  _767
REMARK  292  A    between atoms: _769  and  _771
REMARK  293  A    between atoms: _771  and  _772
REMARK  294  A    between atoms: _771  and  _774
REMARK  295  A    between atoms: _774  and  _775
REMARK  296  A    between atoms: _781  and  _783
REMARK  297  A    between atoms: _783  and  _784
REMARK  298  A    between atoms: _783  and  _786
REMARK  299  A    between atoms: _786  and  _787
REMARK  300  A    between atoms: _787  and  _788
REMARK                            x       y       z     vdW  Elec       q    Type
REMARK                         _______ _______ _______ _____ _____    ______ ____
ROOT
ATOM      1  O   HOH     1      12.980 -13.837 -22.648  0.00  0.00    +0.000 OA
ENDROOT
TORSDOF 0
REMARK  Name = ../refined-set-2016/4ca5/4ca5_pocket.pdb
REMARK  300 active torsions:
REMARK  status: ('A' for Active; 'I' for Inactive)
REMARK    1  A    between atoms: _1  and  _3
REMARK    2  A    between atoms: _3  and  _4
REMARK    3  A    between atoms: _3  and  _6
REMARK    4  A    between atoms: _6  and  _7
REMARK    5  A    between atoms: _12  and  _14
REMARK    6  A    between atoms: _14  and  _15
REMARK    7  A    between atoms: _14  and  _17
REMARK    8  A    between atoms: _17  and  _18
REMARK    9  A    between atoms: _23  and  _25
REMARK   10  A    between atoms: _25  and  _26
REMARK   11  A    between atoms: _25  and  _28
REMARK   12  A    between atoms: _28  and  _29
REMARK   13  A    between atoms: _29  and  _30
REMARK   14  A    between atoms: _33  and  _35
REMARK   15  A    between atoms: _35  and  _36
REMARK   16  A    between atoms: _35  and  _38
REMARK   17  A    between atoms: _38  and  _39
REMARK   18  A    between atoms: _44  and  _45
REMARK   19  A    between atoms: _47  and  _49
REMARK   20  A    between atoms: _49  and  _50
REMARK   21  A    between atoms: _49  and  _52
REMARK   22  A    between atoms: _52  and  _53
REMARK   23  A    between atoms: _53  and  _54
REMARK   24  A    between atoms: _57  and  _59
REMARK   25  A    between atoms: _59  and  _60
REMARK   26  A    between atoms: _59  and  _62
REMARK   27  A    between atoms: _62  and  _63
REMARK   28  A    between atoms: _66  and  _68
REMARK   29  A    between atoms: _68  and  _69
REMARK   30  A    between atoms: _71  and  _73
REMARK   31  A    between atoms: _73  and  _74
REMARK   32  A    between atoms: _73  and  _76
REMARK   33  A    between atoms: _76  and  _77
REMARK   34  A    between atoms: _82  and  _84
REMARK   35  A    between atoms: _84  and  _85
REMARK   36  A    between atoms: _84  and  _87
REMARK   37  A    between atoms: _87  and  _88
REMARK   38  A    between atoms: _88  and  _89
REMARK   39  A    between atoms: _91  and  _93
REMARK   40  A    between atoms: _93  and  _94
REMARK   41  A    between atoms: _93  and  _96
REMARK   42  A    between atoms: _96  and  _97
REMARK   43  A    between atoms: _107  and  _109
REMARK   44  A    between atoms: _109  and  _110
REMARK   45  A    between atoms: _109  and  _112
REMARK   46  A    between atoms: _112  and  _113
REMARK   47  A    between atoms: _113  and  _114
REMARK   48  A    between atoms: _119  and  _121
REMARK   49  A    between atoms: _121  and  _122
REMARK   50  A    between atoms: _121  and  _124
REMARK   51  A    between atoms: _124  and  _125
REMARK   52  A    between atoms: _128  and  _130
REMARK   53  A    between atoms: _130  and  _131
REMARK   54  A    between atoms: _130  and  _133
REMARK   55  A    between atoms: _133  and  _134
REMARK   56  A    between atoms: _144  and  _146
REMARK   57  A    between atoms: _146  and  _147
REMARK   58  A    between atoms: _146  and  _149
REMARK   59  A    between atoms: _149  and  _150
REMARK   60  A    between atoms: _152  and  _154
REMARK   61  A    between atoms: _154  and  _155
REMARK   62  A    between atoms: _154  and  _157
REMARK   63  A    between atoms: _157  and  _158
REMARK   64  A    between atoms: _163  and  _165
REMARK   65  A    between atoms: _165  and  _166
REMARK   66  A    between atoms: _165  and  _168
REMARK   67  A    between atoms: _171  and  _173
REMARK   68  A    between atoms: _173  and  _174
REMARK   69  A    between atoms: _173  and  _176
REMARK   70  A    between atoms: _178  and  _180
REMARK   71  A    between atoms: _180  and  _181
REMARK   72  A    between atoms: _180  and  _183
REMARK   73  A    between atoms: _183  and  _184
REMARK   74  A    between atoms: _189  and  _191
REMARK   75  A    between atoms: _191  and  _192
REMARK   76  A    between atoms: _195  and  _197
REMARK   77  A    between atoms: _197  and  _198
REMARK   78  A    between atoms: _197  and  _200
REMARK   79  A    between atoms: _200  and  _201
REMARK   80  A    between atoms: _203  and  _205
REMARK   81  A    between atoms: _205  and  _206
REMARK   82  A    between atoms: _209  and  _211
REMARK   83  A    between atoms: _211  and  _212
REMARK   84  A    between atoms: _211  and  _214
REMARK   85  A    between atoms: _214  and  _215
REMARK   86  A    between atoms: _225  and  _227
REMARK   87  A    between atoms: _227  and  _228
REMARK   88  A    between atoms: _227  and  _230
REMARK   89  A    between atoms: _230  and  _231
REMARK   90  A    between atoms: _234  and  _236
REMARK   91  A    between atoms: _236  and  _237
REMARK   92  A    between atoms: _236  and  _239
REMARK   93  A    between atoms: _239  and  _240
REMARK   94  A    between atoms: _245  and  _246
REMARK   95  A    between atoms: _248  and  _250
REMARK   96  A    between atoms: _250  and  _251
REMARK   97  A    between atoms: _250  and  _253
REMARK   98  A    between atoms: _253  and  _254
REMARK   99  A    between atoms: _254  and  _255
REMARK  100  A    between atoms: _255  and  _256
REMARK  101  A    between atoms: _265  and  _267
REMARK  102  A    between atoms: _267  and  _268
REMARK  103  A    between atoms: _267  and  _270
REMARK  104  A    between atoms: _270  and  _271
REMARK  105  A    between atoms: _274  and  _276
REMARK  106  A    between atoms: _276  and  _277
REMARK  107  A    between atoms: _276  and  _279
REMARK  108  A    between atoms: _279  and  _280
REMARK  109  A    between atoms: _280  and  _281
REMARK  110  A    between atoms: _281  and  _282
REMARK  111  A    between atoms: _282  and  _283
REMARK  112  A    between atoms: _287  and  _289
REMARK  113  A    between atoms: _289  and  _290
REMARK  114  A    between atoms: _289  and  _292
REMARK  115  A    between atoms: _292  and  _293
REMARK  116  A    between atoms: _293  and  _294
REMARK  117  A    between atoms: _299  and  _301
REMARK  118  A    between atoms: _301  and  _302
REMARK  119  A    between atoms: _301  and  _304
REMARK  120  A    between atoms: _304  and  _305
REMARK  121  A    between atoms: _310  and  _312
REMARK  122  A    between atoms: _312  and  _313
REMARK  123  A    between atoms: _312  and  _315
REMARK  124  A    between atoms: _315  and  _316
REMARK  125  A    between atoms: _319  and  _321
REMARK  126  A    between atoms: _321  and  _322
REMARK  127  A    between atoms: _321  and  _324
REMARK  128  A    between atoms: _324  and  _325
REMARK  129  A    between atoms: _325  and  _326
REMARK  130  A    between atoms: _329  and  _331
REMARK  131  A    between atoms: _331  and  _332
REMARK  132  A    between atoms: _331  and  _334
REMARK  133  A    between atoms: _334  and  _335
REMARK  134  A    between atoms: _338  and  _340
REMARK  135  A    between atoms: _340  and  _341
REMARK  136  A    between atoms: _340  and  _343
REMARK  137  A    between atoms: _346  and  _348
REMARK  138  A    between atoms: _348  and  _349
REMARK  139  A    between atoms: _348  and  _351
REMARK  140  A    between atoms: _354  and  _356
REMARK  141  A    between atoms: _356  and  _357
REMARK  142  A    between atoms: _360  and  _362
REMARK  143  A    between atoms: _362  and  _363
REMARK  144  A    between atoms: _362  and  _365
REMARK  145  A    between atoms: _365  and  _366
REMARK  146  A    between atoms: _371  and  _373
REMARK  147  A    between atoms: _384  and  _387
REMARK  148  A    between atoms: _387  and  _388
REMARK  149  A    between atoms: _388  and  _389
REMARK  150  A    between atoms: _394  and  _397
REMARK  151  A    between atoms: _397  and  _398
REMARK  152  A    between atoms: _398  and  _399
REMARK  153  A    between atoms: _408  and  _409
REMARK  154  A    between atoms: _417  and  _419
REMARK  155  A    between atoms: _419  and  _420
REMARK  156  A    between atoms: _419  and  _422
REMARK  157  A    between atoms: _422  and  _423
REMARK  158  A    between atoms: _426  and  _428
REMARK  159  A    between atoms: _428  and  _429
REMARK  160  A    between atoms: _428  and  _431
REMARK  161  A    between atoms: _431  and  _432
REMARK  162  A    between atoms: _437  and  _438
REMARK  163  A    between atoms: _440  and  _442
REMARK  164  A    between atoms: _442  and  _443
REMARK  165  A    between atoms: _442  and  _445
REMARK  166  A    between atoms: _445  and  _446
REMARK  167  A    between atoms: _452  and  _454
REMARK  168  A    between atoms: _454  and  _455
REMARK  169  A    between atoms: _454  and  _457
REMARK  170  A    between atoms: _457  and  _458
REMARK  171  A    between atoms: _463  and  _464
REMARK  172  A    between atoms: _466  and  _468
REMARK  173  A    between atoms: _468  and  _469
REMARK  174  A    between atoms: _468  and  _471
REMARK  175  A    between atoms: _471  and  _472
REMARK  176  A    between atoms: _472  and  _473
REMARK  177  A    between atoms: _473  and  _474
REMARK  178  A    between atoms: _483  and  _485
REMARK  179  A    between atoms: _485  and  _486
REMARK  180  A    between atoms: _485  and  _488
REMARK  181  A    between atoms: _488  and  _489
REMARK  182  A    between atoms: _489  and  _490
REMARK  183  A    between atoms: _493  and  _495
REMARK  184  A    between atoms: _495  and  _496
REMARK  185  A    between atoms: _498  and  _500
REMARK  186  A    between atoms: _500  and  _501
REMARK  187  A    between atoms: _500  and  _503
REMARK  188  A    between atoms: _503  and  _504
REMARK  189  A    between atoms: _510  and  _511
REMARK  190  A    between atoms: _516  and  _518
REMARK  191  A    between atoms: _518  and  _519
REMARK  192  A    between atoms: _521  and  _523
REMARK  193  A    between atoms: _523  and  _524
REMARK  194  A    between atoms: _523  and  _526
REMARK  195  A    between atoms: _526  and  _527
REMARK  196  A    between atoms: _533  and  _535
REMARK  197  A    between atoms: _535  and  _536
REMARK  198  A    between atoms: _535  and  _538
REMARK  199  A    between atoms: _538  and  _539
REMARK  200  A    between atoms: _544  and  _546
REMARK  201  A    between atoms: _546  and  _547
REMARK  202  A    between atoms: _546  and  _549
REMARK  203  A    between atoms: _549  and  _550
REMARK  204  A    between atoms: _550  and  _551
REMARK  205  A    between atoms: _551  and  _552
REMARK  206  A    between atoms: _552  and  ZN_793
REMARK  207  A    between atoms: _554  and  _556
REMARK  208  A    between atoms: _556  and  _557
REMARK  209  A    between atoms: _560  and  _562
REMARK  210  A    between atoms: _562  and  _563
REMARK  211  A    between atoms: _562  and  _565
REMARK  212  A    between atoms: _565  and  _566
REMARK  213  A    between atoms: _569  and  _571
REMARK  214  A    between atoms: _571  and  _572
REMARK  215  A    between atoms: _575  and  _577
REMARK  216  A    between atoms: _577  and  _578
REMARK  217  A    between atoms: _577  and  _580
REMARK  218  A    between atoms: _580  and  _581
REMARK  219  A    between atoms: _584  and  _586
REMARK  220  A    between atoms: _586  and  _587
REMARK  221  A    between atoms: _586  and  _589
REMARK  222  A    between atoms: _589  and  _590
REMARK  223  A    between atoms: _590  and  _591
REMARK  224  A    between atoms: _591  and  _592
REMARK  225  A    between atoms: _592  and  _593
REMARK  226  A    between atoms: _597  and  _599
REMARK  227  A    between atoms: _599  and  _600
REMARK  228  A    between atoms: _599  and  _602
REMARK  229  A    between atoms: _602  and  _603
REMARK  230  A    between atoms: _609  and  _611
REMARK  231  A    between atoms: _611  and  _612
REMARK  232  A    between atoms: _611  and  _614
REMARK  233  A    between atoms: _614  and  _615
REMARK  234  A    between atoms: _621  and  _623
REMARK  235  A    between atoms: _623  and  _624
REMARK  236  A    between atoms: _623  and  _626
REMARK  237  A    between atoms: _626  and  _627
REMARK  238  A    between atoms: _629  and  _631
REMARK  239  A    between atoms: _631  and  _632
REMARK  240  A    between atoms: _631  and  _634
REMARK  241  A    between atoms: _637  and  _639
REMARK  242  A    between atoms: _639  and  _640
REMARK  243  A    between atoms: _639  and  _642
REMARK  244  A    between atoms: _642  and  _643
REMARK  245  A    between atoms: _643  and  _644
REMARK  246  A    between atoms: _644  and  _645
REMARK  247  A    between atoms: _645  and  _646
REMARK  248  A    between atoms: _650  and  _652
REMARK  249  A    between atoms: _652  and  _653
REMARK  250  A    between atoms: _652  and  _655
REMARK  251  A    between atoms: _655  and  _656
REMARK  252  A    between atoms: _662  and  _664
REMARK  253  A    between atoms: _664  and  _665
REMARK  254  A    between atoms: _664  and  _667
REMARK  255  A    between atoms: _667  and  _668
REMARK  256  A    between atoms: _673  and  _675
REMARK  257  A    between atoms: _675  and  _676
REMARK  258  A    between atoms: _675  and  _678
REMARK  259  A    between atoms: _678  and  _679
REMARK  260  A    between atoms: _681  and  _683
REMARK  261  A    between atoms: _683  and  _684
REMARK  262  A    between atoms: _683  and  _686
REMARK  263  A    between atoms: _686  and  _687
REMARK  264  A    between atoms: _689  and  _691
REMARK  265  A    between atoms: _691  and  _692
REMARK  266  A    between atoms: _691  and  _694
REMARK  267  A    between atoms: _698  and  _699
REMARK  268  A    between atoms: _704  and  _706
REMARK  269  A    between atoms: _706  and  _707
REMARK  270  A    between atoms: _706  and  _709
REMARK  271  A    between atoms: _709  and  _710
REMARK  272  A    between atoms: _715  and  _716
REMARK  273  A    between atoms: _718  and  _720
REMARK  274  A    between atoms: _720  and  _721
REMARK  275  A    between atoms: _720  and  _723
REMARK  276  A    between atoms: _723  and  _724
REMARK  277  A    between atoms: _724  and  _725
REMARK  278  A    between atoms: _725  and  _726
REMARK  279  A    between atoms: _735  and  _737
REMARK  280  A    between atoms: _737  and  _738
REMARK  281  A    between atoms: _737  and  _740
REMARK  282  A    between atoms: _740  and  _741
REMARK  283  A    between atoms: _746  and  _747
REMARK  284  A    between atoms: _749  and  _751
REMARK  285  A    between atoms: _751  and  _752
REMARK  286  A    between atoms: _751  and  _754
REMARK  287  A    between atoms: _754  and  _755
REMARK  288  A    between atoms: _761  and  _763
REMARK  289  A    between atoms: _763  and  _764
REMARK  290  A    between atoms: _763  and  _766
REMARK  291  A    between atoms: _766  and  _767
REMARK  292  A    between atoms: _769  and  _771
REMARK  293  A    between atoms: _771  and  _772
REMARK  294  A    between atoms: _771  and  _774
REMARK  295  A    between atoms: _774  and  _775
REMARK  296  A    between atoms: _781  and  _783
REMARK  297  A    between atoms: _783  and  _784
REMARK  298  A    between atoms: _783  and  _786
REMARK  299  A    between atoms: _786  and  _787
REMARK  300  A    between atoms: _787  and  _788
REMARK                            x       y       z     vdW  Elec       q    Type
REMARK                         _______ _______ _______ _____ _____    ______ ____
ROOT
ATOM      1  O   HOH     1      20.343 -12.859 -29.403  0.00  0.00    +0.000 OA
ENDROOT
TORSDOF 0
REMARK  Name = ../refined-set-2016/4ca5/4ca5_pocket.pdb
REMARK  300 active torsions:
REMARK  status: ('A' for Active; 'I' for Inactive)
REMARK    1  A    between atoms: _1  and  _3
REMARK    2  A    between atoms: _3  and  _4
REMARK    3  A    between atoms: _3  and  _6
REMARK    4  A    between atoms: _6  and  _7
REMARK    5  A    between atoms: _12  and  _14
REMARK    6  A    between atoms: _14  and  _15
REMARK    7  A    between atoms: _14  and  _17
REMARK    8  A    between atoms: _17  and  _18
REMARK    9  A    between atoms: _23  and  _25
REMARK   10  A    between atoms: _25  and  _26
REMARK   11  A    between atoms: _25  and  _28
REMARK   12  A    between atoms: _28  and  _29
REMARK   13  A    between atoms: _29  and  _30
REMARK   14  A    between atoms: _33  and  _35
REMARK   15  A    between atoms: _35  and  _36
REMARK   16  A    between atoms: _35  and  _38
REMARK   17  A    between atoms: _38  and  _39
REMARK   18  A    between atoms: _44  and  _45
REMARK   19  A    between atoms: _47  and  _49
REMARK   20  A    between atoms: _49  and  _50
REMARK   21  A    between atoms: _49  and  _52
REMARK   22  A    between atoms: _52  and  _53
REMARK   23  A    between atoms: _53  and  _54
REMARK   24  A    between atoms: _57  and  _59
REMARK   25  A    between atoms: _59  and  _60
REMARK   26  A    between atoms: _59  and  _62
REMARK   27  A    between atoms: _62  and  _63
REMARK   28  A    between atoms: _66  and  _68
REMARK   29  A    between atoms: _68  and  _69
REMARK   30  A    between atoms: _71  and  _73
REMARK   31  A    between atoms: _73  and  _74
REMARK   32  A    between atoms: _73  and  _76
REMARK   33  A    between atoms: _76  and  _77
REMARK   34  A    between atoms: _82  and  _84
REMARK   35  A    between atoms: _84  and  _85
REMARK   36  A    between atoms: _84  and  _87
REMARK   37  A    between atoms: _87  and  _88
REMARK   38  A    between atoms: _88  and  _89
REMARK   39  A    between atoms: _91  and  _93
REMARK   40  A    between atoms: _93  and  _94
REMARK   41  A    between atoms: _93  and  _96
REMARK   42  A    between atoms: _96  and  _97
REMARK   43  A    between atoms: _107  and  _109
REMARK   44  A    between atoms: _109  and  _110
REMARK   45  A    between atoms: _109  and  _112
REMARK   46  A    between atoms: _112  and  _113
REMARK   47  A    between atoms: _113  and  _114
REMARK   48  A    between atoms: _119  and  _121
REMARK   49  A    between atoms: _121  and  _122
REMARK   50  A    between atoms: _121  and  _124
REMARK   51  A    between atoms: _124  and  _125
REMARK   52  A    between atoms: _128  and  _130
REMARK   53  A    between atoms: _130  and  _131
REMARK   54  A    between atoms: _130  and  _133
REMARK   55  A    between atoms: _133  and  _134
REMARK   56  A    between atoms: _144  and  _146
REMARK   57  A    between atoms: _146  and  _147
REMARK   58  A    between atoms: _146  and  _149
REMARK   59  A    between atoms: _149  and  _150
REMARK   60  A    between atoms: _152  and  _154
REMARK   61  A    between atoms: _154  and  _155
REMARK   62  A    between atoms: _154  and  _157
REMARK   63  A    between atoms: _157  and  _158
REMARK   64  A    between atoms: _163  and  _165
REMARK   65  A    between atoms: _165  and  _166
REMARK   66  A    between atoms: _165  and  _168
REMARK   67  A    between atoms: _171  and  _173
REMARK   68  A    between atoms: _173  and  _174
REMARK   69  A    between atoms: _173  and  _176
REMARK   70  A    between atoms: _178  and  _180
REMARK   71  A    between atoms: _180  and  _181
REMARK   72  A    between atoms: _180  and  _183
REMARK   73  A    between atoms: _183  and  _184
REMARK   74  A    between atoms: _189  and  _191
REMARK   75  A    between atoms: _191  and  _192
REMARK   76  A    between atoms: _195  and  _197
REMARK   77  A    between atoms: _197  and  _198
REMARK   78  A    between atoms: _197  and  _200
REMARK   79  A    between atoms: _200  and  _201
REMARK   80  A    between atoms: _203  and  _205
REMARK   81  A    between atoms: _205  and  _206
REMARK   82  A    between atoms: _209  and  _211
REMARK   83  A    between atoms: _211  and  _212
REMARK   84  A    between atoms: _211  and  _214
REMARK   85  A    between atoms: _214  and  _215
REMARK   86  A    between atoms: _225  and  _227
REMARK   87  A    between atoms: _227  and  _228
REMARK   88  A    between atoms: _227  and  _230
REMARK   89  A    between atoms: _230  and  _231
REMARK   90  A    between atoms: _234  and  _236
REMARK   91  A    between atoms: _236  and  _237
REMARK   92  A    between atoms: _236  and  _239
REMARK   93  A    between atoms: _239  and  _240
REMARK   94  A    between atoms: _245  and  _246
REMARK   95  A    between atoms: _248  and  _250
REMARK   96  A    between atoms: _250  and  _251
REMARK   97  A    between atoms: _250  and  _253
REMARK   98  A    between atoms: _253  and  _254
REMARK   99  A    between atoms: _254  and  _255
REMARK  100  A    between atoms: _255  and  _256
REMARK  101  A    between atoms: _265  and  _267
REMARK  102  A    between atoms: _267  and  _268
REMARK  103  A    between atoms: _267  and  _270
REMARK  104  A    between atoms: _270  and  _271
REMARK  105  A    between atoms: _274  and  _276
REMARK  106  A    between atoms: _276  and  _277
REMARK  107  A    between atoms: _276  and  _279
REMARK  108  A    between atoms: _279  and  _280
REMARK  109  A    between atoms: _280  and  _281
REMARK  110  A    between atoms: _281  and  _282
REMARK  111  A    between atoms: _282  and  _283
REMARK  112  A    between atoms: _287  and  _289
REMARK  113  A    between atoms: _289  and  _290
REMARK  114  A    between atoms: _289  and  _292
REMARK  115  A    between atoms: _292  and  _293
REMARK  116  A    between atoms: _293  and  _294
REMARK  117  A    between atoms: _299  and  _301
REMARK  118  A    between atoms: _301  and  _302
REMARK  119  A    between atoms: _301  and  _304
REMARK  120  A    between atoms: _304  and  _305
REMARK  121  A    between atoms: _310  and  _312
REMARK  122  A    between atoms: _312  and  _313
REMARK  123  A    between atoms: _312  and  _315
REMARK  124  A    between atoms: _315  and  _316
REMARK  125  A    between atoms: _319  and  _321
REMARK  126  A    between atoms: _321  and  _322
REMARK  127  A    between atoms: _321  and  _324
REMARK  128  A    between atoms: _324  and  _325
REMARK  129  A    between atoms: _325  and  _326
REMARK  130  A    between atoms: _329  and  _331
REMARK  131  A    between atoms: _331  and  _332
REMARK  132  A    between atoms: _331  and  _334
REMARK  133  A    between atoms: _334  and  _335
REMARK  134  A    between atoms: _338  and  _340
REMARK  135  A    between atoms: _340  and  _341
REMARK  136  A    between atoms: _340  and  _343
REMARK  137  A    between atoms: _346  and  _348
REMARK  138  A    between atoms: _348  and  _349
REMARK  139  A    between atoms: _348  and  _351
REMARK  140  A    between atoms: _354  and  _356
REMARK  141  A    between atoms: _356  and  _357
REMARK  142  A    between atoms: _360  and  _362
REMARK  143  A    between atoms: _362  and  _363
REMARK  144  A    between atoms: _362  and  _365
REMARK  145  A    between atoms: _365  and  _366
REMARK  146  A    between atoms: _371  and  _373
REMARK  147  A    between atoms: _384  and  _387
REMARK  148  A    between atoms: _387  and  _388
REMARK  149  A    between atoms: _388  and  _389
REMARK  150  A    between atoms: _394  and  _397
REMARK  151  A    between atoms: _397  and  _398
REMARK  152  A    between atoms: _398  and  _399
REMARK  153  A    between atoms: _408  and  _409
REMARK  154  A    between atoms: _417  and  _419
REMARK  155  A    between atoms: _419  and  _420
REMARK  156  A    between atoms: _419  and  _422
REMARK  157  A    between atoms: _422  and  _423
REMARK  158  A    between atoms: _426  and  _428
REMARK  159  A    between atoms: _428  and  _429
REMARK  160  A    between atoms: _428  and  _431
REMARK  161  A    between atoms: _431  and  _432
REMARK  162  A    between atoms: _437  and  _438
REMARK  163  A    between atoms: _440  and  _442
REMARK  164  A    between atoms: _442  and  _443
REMARK  165  A    between atoms: _442  and  _445
REMARK  166  A    between atoms: _445  and  _446
REMARK  167  A    between atoms: _452  and  _454
REMARK  168  A    between atoms: _454  and  _455
REMARK  169  A    between atoms: _454  and  _457
REMARK  170  A    between atoms: _457  and  _458
REMARK  171  A    between atoms: _463  and  _464
REMARK  172  A    between atoms: _466  and  _468
REMARK  173  A    between atoms: _468  and  _469
REMARK  174  A    between atoms: _468  and  _471
REMARK  175  A    between atoms: _471  and  _472
REMARK  176  A    between atoms: _472  and  _473
REMARK  177  A    between atoms: _473  and  _474
REMARK  178  A    between atoms: _483  and  _485
REMARK  179  A    between atoms: _485  and  _486
REMARK  180  A    between atoms: _485  and  _488
REMARK  181  A    between atoms: _488  and  _489
REMARK  182  A    between atoms: _489  and  _490
REMARK  183  A    between atoms: _493  and  _495
REMARK  184  A    between atoms: _495  and  _496
REMARK  185  A    between atoms: _498  and  _500
REMARK  186  A    between atoms: _500  and  _501
REMARK  187  A    between atoms: _500  and  _503
REMARK  188  A    between atoms: _503  and  _504
REMARK  189  A    between atoms: _510  and  _511
REMARK  190  A    between atoms: _516  and  _518
REMARK  191  A    between atoms: _518  and  _519
REMARK  192  A    between atoms: _521  and  _523
REMARK  193  A    between atoms: _523  and  _524
REMARK  194  A    between atoms: _523  and  _526
REMARK  195  A    between atoms: _526  and  _527
REMARK  196  A    between atoms: _533  and  _535
REMARK  197  A    between atoms: _535  and  _536
REMARK  198  A    between atoms: _535  and  _538
REMARK  199  A    between atoms: _538  and  _539
REMARK  200  A    between atoms: _544  and  _546
REMARK  201  A    between atoms: _546  and  _547
REMARK  202  A    between atoms: _546  and  _549
REMARK  203  A    between atoms: _549  and  _550
REMARK  204  A    between atoms: _550  and  _551
REMARK  205  A    between atoms: _551  and  _552
REMARK  206  A    between atoms: _552  and  ZN_793
REMARK  207  A    between atoms: _554  and  _556
REMARK  208  A    between atoms: _556  and  _557
REMARK  209  A    between atoms: _560  and  _562
REMARK  210  A    between atoms: _562  and  _563
REMARK  211  A    between atoms: _562  and  _565
REMARK  212  A    between atoms: _565  and  _566
REMARK  213  A    between atoms: _569  and  _571
REMARK  214  A    between atoms: _571  and  _572
REMARK  215  A    between atoms: _575  and  _577
REMARK  216  A    between atoms: _577  and  _578
REMARK  217  A    between atoms: _577  and  _580
REMARK  218  A    between atoms: _580  and  _581
REMARK  219  A    between atoms: _584  and  _586
REMARK  220  A    between atoms: _586  and  _587
REMARK  221  A    between atoms: _586  and  _589
REMARK  222  A    between atoms: _589  and  _590
REMARK  223  A    between atoms: _590  and  _591
REMARK  224  A    between atoms: _591  and  _592
REMARK  225  A    between atoms: _592  and  _593
REMARK  226  A    between atoms: _597  and  _599
REMARK  227  A    between atoms: _599  and  _600
REMARK  228  A    between atoms: _599  and  _602
REMARK  229  A    between atoms: _602  and  _603
REMARK  230  A    between atoms: _609  and  _611
REMARK  231  A    between atoms: _611  and  _612
REMARK  232  A    between atoms: _611  and  _614
REMARK  233  A    between atoms: _614  and  _615
REMARK  234  A    between atoms: _621  and  _623
REMARK  235  A    between atoms: _623  and  _624
REMARK  236  A    between atoms: _623  and  _626
REMARK  237  A    between atoms: _626  and  _627
REMARK  238  A    between atoms: _629  and  _631
REMARK  239  A    between atoms: _631  and  _632
REMARK  240  A    between atoms: _631  and  _634
REMARK  241  A    between atoms: _637  and  _639
REMARK  242  A    between atoms: _639  and  _640
REMARK  243  A    between atoms: _639  and  _642
REMARK  244  A    between atoms: _642  and  _643
REMARK  245  A    between atoms: _643  and  _644
REMARK  246  A    between atoms: _644  and  _645
REMARK  247  A    between atoms: _645  and  _646
REMARK  248  A    between atoms: _650  and  _652
REMARK  249  A    between atoms: _652  and  _653
REMARK  250  A    between atoms: _652  and  _655
REMARK  251  A    between atoms: _655  and  _656
REMARK  252  A    between atoms: _662  and  _664
REMARK  253  A    between atoms: _664  and  _665
REMARK  254  A    between atoms: _664  and  _667
REMARK  255  A    between atoms: _667  and  _668
REMARK  256  A    between atoms: _673  and  _675
REMARK  257  A    between atoms: _675  and  _676
REMARK  258  A    between atoms: _675  and  _678
REMARK  259  A    between atoms: _678  and  _679
REMARK  260  A    between atoms: _681  and  _683
REMARK  261  A    between atoms: _683  and  _684
REMARK  262  A    between atoms: _683  and  _686
REMARK  263  A    between atoms: _686  and  _687
REMARK  264  A    between atoms: _689  and  _691
REMARK  265  A    between atoms: _691  and  _692
REMARK  266  A    between atoms: _691  and  _694
REMARK  267  A    between atoms: _698  and  _699
REMARK  268  A    between atoms: _704  and  _706
REMARK  269  A    between atoms: _706  and  _707
REMARK  270  A    between atoms: _706  and  _709
REMARK  271  A    between atoms: _709  and  _710
REMARK  272  A    between atoms: _715  and  _716
REMARK  273  A    between atoms: _718  and  _720
REMARK  274  A    between atoms: _720  and  _721
REMARK  275  A    between atoms: _720  and  _723
REMARK  276  A    between atoms: _723  and  _724
REMARK  277  A    between atoms: _724  and  _725
REMARK  278  A    between atoms: _725  and  _726
REMARK  279  A    between atoms: _735  and  _737
REMARK  280  A    between atoms: _737  and  _738
REMARK  281  A    between atoms: _737  and  _740
REMARK  282  A    between atoms: _740  and  _741
REMARK  283  A    between atoms: _746  and  _747
REMARK  284  A    between atoms: _749  and  _751
REMARK  285  A    between atoms: _751  and  _752
REMARK  286  A    between atoms: _751  and  _754
REMARK  287  A    between atoms: _754  and  _755
REMARK  288  A    between atoms: _761  and  _763
REMARK  289  A    between atoms: _763  and  _764
REMARK  290  A    between atoms: _763  and  _766
REMARK  291  A    between atoms: _766  and  _767
REMARK  292  A    between atoms: _769  and  _771
REMARK  293  A    between atoms: _771  and  _772
REMARK  294  A    between atoms: _771  and  _774
REMARK  295  A    between atoms: _774  and  _775
REMARK  296  A    between atoms: _781  and  _783
REMARK  297  A    between atoms: _783  and  _784
REMARK  298  A    between atoms: _783  and  _786
REMARK  299  A    between atoms: _786  and  _787
REMARK  300  A    between atoms: _787  and  _788
REMARK                            x       y       z     vdW  Elec       q    Type
REMARK                         _______ _______ _______ _____ _____    ______ ____
ROOT
ATOM      1  O   HOH     1       5.316 -13.355 -14.769  0.00  0.00    +0.000 OA
ENDROOT
TORSDOF 0
REMARK  Name = ../refined-set-2016/4ca5/4ca5_pocket.pdb
REMARK  300 active torsions:
REMARK  status: ('A' for Active; 'I' for Inactive)
REMARK    1  A    between atoms: _1  and  _3
REMARK    2  A    between atoms: _3  and  _4
REMARK    3  A    between atoms: _3  and  _6
REMARK    4  A    between atoms: _6  and  _7
REMARK    5  A    between atoms: _12  and  _14
REMARK    6  A    between atoms: _14  and  _15
REMARK    7  A    between atoms: _14  and  _17
REMARK    8  A    between atoms: _17  and  _18
REMARK    9  A    between atoms: _23  and  _25
REMARK   10  A    between atoms: _25  and  _26
REMARK   11  A    between atoms: _25  and  _28
REMARK   12  A    between atoms: _28  and  _29
REMARK   13  A    between atoms: _29  and  _30
REMARK   14  A    between atoms: _33  and  _35
REMARK   15  A    between atoms: _35  and  _36
REMARK   16  A    between atoms: _35  and  _38
REMARK   17  A    between atoms: _38  and  _39
REMARK   18  A    between atoms: _44  and  _45
REMARK   19  A    between atoms: _47  and  _49
REMARK   20  A    between atoms: _49  and  _50
REMARK   21  A    between atoms: _49  and  _52
REMARK   22  A    between atoms: _52  and  _53
REMARK   23  A    between atoms: _53  and  _54
REMARK   24  A    between atoms: _57  and  _59
REMARK   25  A    between atoms: _59  and  _60
REMARK   26  A    between atoms: _59  and  _62
REMARK   27  A    between atoms: _62  and  _63
REMARK   28  A    between atoms: _66  and  _68
REMARK   29  A    between atoms: _68  and  _69
REMARK   30  A    between atoms: _71  and  _73
REMARK   31  A    between atoms: _73  and  _74
REMARK   32  A    between atoms: _73  and  _76
REMARK   33  A    between atoms: _76  and  _77
REMARK   34  A    between atoms: _82  and  _84
REMARK   35  A    between atoms: _84  and  _85
REMARK   36  A    between atoms: _84  and  _87
REMARK   37  A    between atoms: _87  and  _88
REMARK   38  A    between atoms: _88  and  _89
REMARK   39  A    between atoms: _91  and  _93
REMARK   40  A    between atoms: _93  and  _94
REMARK   41  A    between atoms: _93  and  _96
REMARK   42  A    between atoms: _96  and  _97
REMARK   43  A    between atoms: _107  and  _109
REMARK   44  A    between atoms: _109  and  _110
REMARK   45  A    between atoms: _109  and  _112
REMARK   46  A    between atoms: _112  and  _113
REMARK   47  A    between atoms: _113  and  _114
REMARK   48  A    between atoms: _119  and  _121
REMARK   49  A    between atoms: _121  and  _122
REMARK   50  A    between atoms: _121  and  _124
REMARK   51  A    between atoms: _124  and  _125
REMARK   52  A    between atoms: _128  and  _130
REMARK   53  A    between atoms: _130  and  _131
REMARK   54  A    between atoms: _130  and  _133
REMARK   55  A    between atoms: _133  and  _134
REMARK   56  A    between atoms: _144  and  _146
REMARK   57  A    between atoms: _146  and  _147
REMARK   58  A    between atoms: _146  and  _149
REMARK   59  A    between atoms: _149  and  _150
REMARK   60  A    between atoms: _152  and  _154
REMARK   61  A    between atoms: _154  and  _155
REMARK   62  A    between atoms: _154  and  _157
REMARK   63  A    between atoms: _157  and  _158
REMARK   64  A    between atoms: _163  and  _165
REMARK   65  A    between atoms: _165  and  _166
REMARK   66  A    between atoms: _165  and  _168
REMARK   67  A    between atoms: _171  and  _173
REMARK   68  A    between atoms: _173  and  _174
REMARK   69  A    between atoms: _173  and  _176
REMARK   70  A    between atoms: _178  and  _180
REMARK   71  A    between atoms: _180  and  _181
REMARK   72  A    between atoms: _180  and  _183
REMARK   73  A    between atoms: _183  and  _184
REMARK   74  A    between atoms: _189  and  _191
REMARK   75  A    between atoms: _191  and  _192
REMARK   76  A    between atoms: _195  and  _197
REMARK   77  A    between atoms: _197  and  _198
REMARK   78  A    between atoms: _197  and  _200
REMARK   79  A    between atoms: _200  and  _201
REMARK   80  A    between atoms: _203  and  _205
REMARK   81  A    between atoms: _205  and  _206
REMARK   82  A    between atoms: _209  and  _211
REMARK   83  A    between atoms: _211  and  _212
REMARK   84  A    between atoms: _211  and  _214
REMARK   85  A    between atoms: _214  and  _215
REMARK   86  A    between atoms: _225  and  _227
REMARK   87  A    between atoms: _227  and  _228
REMARK   88  A    between atoms: _227  and  _230
REMARK   89  A    between atoms: _230  and  _231
REMARK   90  A    between atoms: _234  and  _236
REMARK   91  A    between atoms: _236  and  _237
REMARK   92  A    between atoms: _236  and  _239
REMARK   93  A    between atoms: _239  and  _240
REMARK   94  A    between atoms: _245  and  _246
REMARK   95  A    between atoms: _248  and  _250
REMARK   96  A    between atoms: _250  and  _251
REMARK   97  A    between atoms: _250  and  _253
REMARK   98  A    between atoms: _253  and  _254
REMARK   99  A    between atoms: _254  and  _255
REMARK  100  A    between atoms: _255  and  _256
REMARK  101  A    between atoms: _265  and  _267
REMARK  102  A    between atoms: _267  and  _268
REMARK  103  A    between atoms: _267  and  _270
REMARK  104  A    between atoms: _270  and  _271
REMARK  105  A    between atoms: _274  and  _276
REMARK  106  A    between atoms: _276  and  _277
REMARK  107  A    between atoms: _276  and  _279
REMARK  108  A    between atoms: _279  and  _280
REMARK  109  A    between atoms: _280  and  _281
REMARK  110  A    between atoms: _281  and  _282
REMARK  111  A    between atoms: _282  and  _283
REMARK  112  A    between atoms: _287  and  _289
REMARK  113  A    between atoms: _289  and  _290
REMARK  114  A    between atoms: _289  and  _292
REMARK  115  A    between atoms: _292  and  _293
REMARK  116  A    between atoms: _293  and  _294
REMARK  117  A    between atoms: _299  and  _301
REMARK  118  A    between atoms: _301  and  _302
REMARK  119  A    between atoms: _301  and  _304
REMARK  120  A    between atoms: _304  and  _305
REMARK  121  A    between atoms: _310  and  _312
REMARK  122  A    between atoms: _312  and  _313
REMARK  123  A    between atoms: _312  and  _315
REMARK  124  A    between atoms: _315  and  _316
REMARK  125  A    between atoms: _319  and  _321
REMARK  126  A    between atoms: _321  and  _322
REMARK  127  A    between atoms: _321  and  _324
REMARK  128  A    between atoms: _324  and  _325
REMARK  129  A    between atoms: _325  and  _326
REMARK  130  A    between atoms: _329  and  _331
REMARK  131  A    between atoms: _331  and  _332
REMARK  132  A    between atoms: _331  and  _334
REMARK  133  A    between atoms: _334  and  _335
REMARK  134  A    between atoms: _338  and  _340
REMARK  135  A    between atoms: _340  and  _341
REMARK  136  A    between atoms: _340  and  _343
REMARK  137  A    between atoms: _346  and  _348
REMARK  138  A    between atoms: _348  and  _349
REMARK  139  A    between atoms: _348  and  _351
REMARK  140  A    between atoms: _354  and  _356
REMARK  141  A    between atoms: _356  and  _357
REMARK  142  A    between atoms: _360  and  _362
REMARK  143  A    between atoms: _362  and  _363
REMARK  144  A    between atoms: _362  and  _365
REMARK  145  A    between atoms: _365  and  _366
REMARK  146  A    between atoms: _371  and  _373
REMARK  147  A    between atoms: _384  and  _387
REMARK  148  A    between atoms: _387  and  _388
REMARK  149  A    between atoms: _388  and  _389
REMARK  150  A    between atoms: _394  and  _397
REMARK  151  A    between atoms: _397  and  _398
REMARK  152  A    between atoms: _398  and  _399
REMARK  153  A    between atoms: _408  and  _409
REMARK  154  A    between atoms: _417  and  _419
REMARK  155  A    between atoms: _419  and  _420
REMARK  156  A    between atoms: _419  and  _422
REMARK  157  A    between atoms: _422  and  _423
REMARK  158  A    between atoms: _426  and  _428
REMARK  159  A    between atoms: _428  and  _429
REMARK  160  A    between atoms: _428  and  _431
REMARK  161  A    between atoms: _431  and  _432
REMARK  162  A    between atoms: _437  and  _438
REMARK  163  A    between atoms: _440  and  _442
REMARK  164  A    between atoms: _442  and  _443
REMARK  165  A    between atoms: _442  and  _445
REMARK  166  A    between atoms: _445  and  _446
REMARK  167  A    between atoms: _452  and  _454
REMARK  168  A    between atoms: _454  and  _455
REMARK  169  A    between atoms: _454  and  _457
REMARK  170  A    between atoms: _457  and  _458
REMARK  171  A    between atoms: _463  and  _464
REMARK  172  A    between atoms: _466  and  _468
REMARK  173  A    between atoms: _468  and  _469
REMARK  174  A    between atoms: _468  and  _471
REMARK  175  A    between atoms: _471  and  _472
REMARK  176  A    between atoms: _472  and  _473
REMARK  177  A    between atoms: _473  and  _474
REMARK  178  A    between atoms: _483  and  _485
REMARK  179  A    between atoms: _485  and  _486
REMARK  180  A    between atoms: _485  and  _488
REMARK  181  A    between atoms: _488  and  _489
REMARK  182  A    between atoms: _489  and  _490
REMARK  183  A    between atoms: _493  and  _495
REMARK  184  A    between atoms: _495  and  _496
REMARK  185  A    between atoms: _498  and  _500
REMARK  186  A    between atoms: _500  and  _501
REMARK  187  A    between atoms: _500  and  _503
REMARK  188  A    between atoms: _503  and  _504
REMARK  189  A    between atoms: _510  and  _511
REMARK  190  A    between atoms: _516  and  _518
REMARK  191  A    between atoms: _518  and  _519
REMARK  192  A    between atoms: _521  and  _523
REMARK  193  A    between atoms: _523  and  _524
REMARK  194  A    between atoms: _523  and  _526
REMARK  195  A    between atoms: _526  and  _527
REMARK  196  A    between atoms: _533  and  _535
REMARK  197  A    between atoms: _535  and  _536
REMARK  198  A    between atoms: _535  and  _538
REMARK  199  A    between atoms: _538  and  _539
REMARK  200  A    between atoms: _544  and  _546
REMARK  201  A    between atoms: _546  and  _547
REMARK  202  A    between atoms: _546  and  _549
REMARK  203  A    between atoms: _549  and  _550
REMARK  204  A    between atoms: _550  and  _551
REMARK  205  A    between atoms: _551  and  _552
REMARK  206  A    between atoms: _552  and  ZN_793
REMARK  207  A    between atoms: _554  and  _556
REMARK  208  A    between atoms: _556  and  _557
REMARK  209  A    between atoms: _560  and  _562
REMARK  210  A    between atoms: _562  and  _563
REMARK  211  A    between atoms: _562  and  _565
REMARK  212  A    between atoms: _565  and  _566
REMARK  213  A    between atoms: _569  and  _571
REMARK  214  A    between atoms: _571  and  _572
REMARK  215  A    between atoms: _575  and  _577
REMARK  216  A    between atoms: _577  and  _578
REMARK  217  A    between atoms: _577  and  _580
REMARK  218  A    between atoms: _580  and  _581
REMARK  219  A    between atoms: _584  and  _586
REMARK  220  A    between atoms: _586  and  _587
REMARK  221  A    between atoms: _586  and  _589
REMARK  222  A    between atoms: _589  and  _590
REMARK  223  A    between atoms: _590  and  _591
REMARK  224  A    between atoms: _591  and  _592
REMARK  225  A    between atoms: _592  and  _593
REMARK  226  A    between atoms: _597  and  _599
REMARK  227  A    between atoms: _599  and  _600
REMARK  228  A    between atoms: _599  and  _602
REMARK  229  A    between atoms: _602  and  _603
REMARK  230  A    between atoms: _609  and  _611
REMARK  231  A    between atoms: _611  and  _612
REMARK  232  A    between atoms: _611  and  _614
REMARK  233  A    between atoms: _614  and  _615
REMARK  234  A    between atoms: _621  and  _623
REMARK  235  A    between atoms: _623  and  _624
REMARK  236  A    between atoms: _623  and  _626
REMARK  237  A    between atoms: _626  and  _627
REMARK  238  A    between atoms: _629  and  _631
REMARK  239  A    between atoms: _631  and  _632
REMARK  240  A    between atoms: _631  and  _634
REMARK  241  A    between atoms: _637  and  _639
REMARK  242  A    between atoms: _639  and  _640
REMARK  243  A    between atoms: _639  and  _642
REMARK  244  A    between atoms: _642  and  _643
REMARK  245  A    between atoms: _643  and  _644
REMARK  246  A    between atoms: _644  and  _645
REMARK  247  A    between atoms: _645  and  _646
REMARK  248  A    between atoms: _650  and  _652
REMARK  249  A    between atoms: _652  and  _653
REMARK  250  A    between atoms: _652  and  _655
REMARK  251  A    between atoms: _655  and  _656
REMARK  252  A    between atoms: _662  and  _664
REMARK  253  A    between atoms: _664  and  _665
REMARK  254  A    between atoms: _664  and  _667
REMARK  255  A    between atoms: _667  and  _668
REMARK  256  A    between atoms: _673  and  _675
REMARK  257  A    between atoms: _675  and  _676
REMARK  258  A    between atoms: _675  and  _678
REMARK  259  A    between atoms: _678  and  _679
REMARK  260  A    between atoms: _681  and  _683
REMARK  261  A    between atoms: _683  and  _684
REMARK  262  A    between atoms: _683  and  _686
REMARK  263  A    between atoms: _686  and  _687
REMARK  264  A    between atoms: _689  and  _691
REMARK  265  A    between atoms: _691  and  _692
REMARK  266  A    between atoms: _691  and  _694
REMARK  267  A    between atoms: _698  and  _699
REMARK  268  A    between atoms: _704  and  _706
REMARK  269  A    between atoms: _706  and  _707
REMARK  270  A    between atoms: _706  and  _709
REMARK  271  A    between atoms: _709  and  _710
REMARK  272  A    between atoms: _715  and  _716
REMARK  273  A    between atoms: _718  and  _720
REMARK  274  A    between atoms: _720  and  _721
REMARK  275  A    between atoms: _720  and  _723
REMARK  276  A    between atoms: _723  and  _724
REMARK  277  A    between atoms: _724  and  _725
REMARK  278  A    between atoms: _725  and  _726
REMARK  279  A    between atoms: _735  and  _737
REMARK  280  A    between atoms: _737  and  _738
REMARK  281  A    between atoms: _737  and  _740
REMARK  282  A    between atoms: _740  and  _741
REMARK  283  A    between atoms: _746  and  _747
REMARK  284  A    between atoms: _749  and  _751
REMARK  285  A    between atoms: _751  and  _752
REMARK  286  A    between atoms: _751  and  _754
REMARK  287  A    between atoms: _754  and  _755
REMARK  288  A    between atoms: _761  and  _763
REMARK  289  A    between atoms: _763  and  _764
REMARK  290  A    between atoms: _763  and  _766
REMARK  291  A    between atoms: _766  and  _767
REMARK  292  A    between atoms: _769  and  _771
REMARK  293  A    between atoms: _771  and  _772
REMARK  294  A    between atoms: _771  and  _774
REMARK  295  A    between atoms: _774  and  _775
REMARK  296  A    between atoms: _781  and  _783
REMARK  297  A    between atoms: _783  and  _784
REMARK  298  A    between atoms: _783  and  _786
REMARK  299  A    between atoms: _786  and  _787
REMARK  300  A    between atoms: _787  and  _788
REMARK                            x       y       z     vdW  Elec       q    Type
REMARK                         _______ _______ _______ _____ _____    ______ ____
ROOT
ATOM      1  O   HOH     1       6.174 -10.835 -13.618  0.00  0.00    +0.000 OA
ENDROOT
TORSDOF 0
REMARK  Name = ../refined-set-2016/4ca5/4ca5_pocket.pdb
REMARK  300 active torsions:
REMARK  status: ('A' for Active; 'I' for Inactive)
REMARK    1  A    between atoms: _1  and  _3
REMARK    2  A    between atoms: _3  and  _4
REMARK    3  A    between atoms: _3  and  _6
REMARK    4  A    between atoms: _6  and  _7
REMARK    5  A    between atoms: _12  and  _14
REMARK    6  A    between atoms: _14  and  _15
REMARK    7  A    between atoms: _14  and  _17
REMARK    8  A    between atoms: _17  and  _18
REMARK    9  A    between atoms: _23  and  _25
REMARK   10  A    between atoms: _25  and  _26
REMARK   11  A    between atoms: _25  and  _28
REMARK   12  A    between atoms: _28  and  _29
REMARK   13  A    between atoms: _29  and  _30
REMARK   14  A    between atoms: _33  and  _35
REMARK   15  A    between atoms: _35  and  _36
REMARK   16  A    between atoms: _35  and  _38
REMARK   17  A    between atoms: _38  and  _39
REMARK   18  A    between atoms: _44  and  _45
REMARK   19  A    between atoms: _47  and  _49
REMARK   20  A    between atoms: _49  and  _50
REMARK   21  A    between atoms: _49  and  _52
REMARK   22  A    between atoms: _52  and  _53
REMARK   23  A    between atoms: _53  and  _54
REMARK   24  A    between atoms: _57  and  _59
REMARK   25  A    between atoms: _59  and  _60
REMARK   26  A    between atoms: _59  and  _62
REMARK   27  A    between atoms: _62  and  _63
REMARK   28  A    between atoms: _66  and  _68
REMARK   29  A    between atoms: _68  and  _69
REMARK   30  A    between atoms: _71  and  _73
REMARK   31  A    between atoms: _73  and  _74
REMARK   32  A    between atoms: _73  and  _76
REMARK   33  A    between atoms: _76  and  _77
REMARK   34  A    between atoms: _82  and  _84
REMARK   35  A    between atoms: _84  and  _85
REMARK   36  A    between atoms: _84  and  _87
REMARK   37  A    between atoms: _87  and  _88
REMARK   38  A    between atoms: _88  and  _89
REMARK   39  A    between atoms: _91  and  _93
REMARK   40  A    between atoms: _93  and  _94
REMARK   41  A    between atoms: _93  and  _96
REMARK   42  A    between atoms: _96  and  _97
REMARK   43  A    between atoms: _107  and  _109
REMARK   44  A    between atoms: _109  and  _110
REMARK   45  A    between atoms: _109  and  _112
REMARK   46  A    between atoms: _112  and  _113
REMARK   47  A    between atoms: _113  and  _114
REMARK   48  A    between atoms: _119  and  _121
REMARK   49  A    between atoms: _121  and  _122
REMARK   50  A    between atoms: _121  and  _124
REMARK   51  A    between atoms: _124  and  _125
REMARK   52  A    between atoms: _128  and  _130
REMARK   53  A    between atoms: _130  and  _131
REMARK   54  A    between atoms: _130  and  _133
REMARK   55  A    between atoms: _133  and  _134
REMARK   56  A    between atoms: _144  and  _146
REMARK   57  A    between atoms: _146  and  _147
REMARK   58  A    between atoms: _146  and  _149
REMARK   59  A    between atoms: _149  and  _150
REMARK   60  A    between atoms: _152  and  _154
REMARK   61  A    between atoms: _154  and  _155
REMARK   62  A    between atoms: _154  and  _157
REMARK   63  A    between atoms: _157  and  _158
REMARK   64  A    between atoms: _163  and  _165
REMARK   65  A    between atoms: _165  and  _166
REMARK   66  A    between atoms: _165  and  _168
REMARK   67  A    between atoms: _171  and  _173
REMARK   68  A    between atoms: _173  and  _174
REMARK   69  A    between atoms: _173  and  _176
REMARK   70  A    between atoms: _178  and  _180
REMARK   71  A    between atoms: _180  and  _181
REMARK   72  A    between atoms: _180  and  _183
REMARK   73  A    between atoms: _183  and  _184
REMARK   74  A    between atoms: _189  and  _191
REMARK   75  A    between atoms: _191  and  _192
REMARK   76  A    between atoms: _195  and  _197
REMARK   77  A    between atoms: _197  and  _198
REMARK   78  A    between atoms: _197  and  _200
REMARK   79  A    between atoms: _200  and  _201
REMARK   80  A    between atoms: _203  and  _205
REMARK   81  A    between atoms: _205  and  _206
REMARK   82  A    between atoms: _209  and  _211
REMARK   83  A    between atoms: _211  and  _212
REMARK   84  A    between atoms: _211  and  _214
REMARK   85  A    between atoms: _214  and  _215
REMARK   86  A    between atoms: _225  and  _227
REMARK   87  A    between atoms: _227  and  _228
REMARK   88  A    between atoms: _227  and  _230
REMARK   89  A    between atoms: _230  and  _231
REMARK   90  A    between atoms: _234  and  _236
REMARK   91  A    between atoms: _236  and  _237
REMARK   92  A    between atoms: _236  and  _239
REMARK   93  A    between atoms: _239  and  _240
REMARK   94  A    between atoms: _245  and  _246
REMARK   95  A    between atoms: _248  and  _250
REMARK   96  A    between atoms: _250  and  _251
REMARK   97  A    between atoms: _250  and  _253
REMARK   98  A    between atoms: _253  and  _254
REMARK   99  A    between atoms: _254  and  _255
REMARK  100  A    between atoms: _255  and  _256
REMARK  101  A    between atoms: _265  and  _267
REMARK  102  A    between atoms: _267  and  _268
REMARK  103  A    between atoms: _267  and  _270
REMARK  104  A    between atoms: _270  and  _271
REMARK  105  A    between atoms: _274  and  _276
REMARK  106  A    between atoms: _276  and  _277
REMARK  107  A    between atoms: _276  and  _279
REMARK  108  A    between atoms: _279  and  _280
REMARK  109  A    between atoms: _280  and  _281
REMARK  110  A    between atoms: _281  and  _282
REMARK  111  A    between atoms: _282  and  _283
REMARK  112  A    between atoms: _287  and  _289
REMARK  113  A    between atoms: _289  and  _290
REMARK  114  A    between atoms: _289  and  _292
REMARK  115  A    between atoms: _292  and  _293
REMARK  116  A    between atoms: _293  and  _294
REMARK  117  A    between atoms: _299  and  _301
REMARK  118  A    between atoms: _301  and  _302
REMARK  119  A    between atoms: _301  and  _304
REMARK  120  A    between atoms: _304  and  _305
REMARK  121  A    between atoms: _310  and  _312
REMARK  122  A    between atoms: _312  and  _313
REMARK  123  A    between atoms: _312  and  _315
REMARK  124  A    between atoms: _315  and  _316
REMARK  125  A    between atoms: _319  and  _321
REMARK  126  A    between atoms: _321  and  _322
REMARK  127  A    between atoms: _321  and  _324
REMARK  128  A    between atoms: _324  and  _325
REMARK  129  A    between atoms: _325  and  _326
REMARK  130  A    between atoms: _329  and  _331
REMARK  131  A    between atoms: _331  and  _332
REMARK  132  A    between atoms: _331  and  _334
REMARK  133  A    between atoms: _334  and  _335
REMARK  134  A    between atoms: _338  and  _340
REMARK  135  A    between atoms: _340  and  _341
REMARK  136  A    between atoms: _340  and  _343
REMARK  137  A    between atoms: _346  and  _348
REMARK  138  A    between atoms: _348  and  _349
REMARK  139  A    between atoms: _348  and  _351
REMARK  140  A    between atoms: _354  and  _356
REMARK  141  A    between atoms: _356  and  _357
REMARK  142  A    between atoms: _360  and  _362
REMARK  143  A    between atoms: _362  and  _363
REMARK  144  A    between atoms: _362  and  _365
REMARK  145  A    between atoms: _365  and  _366
REMARK  146  A    between atoms: _371  and  _373
REMARK  147  A    between atoms: _384  and  _387
REMARK  148  A    between atoms: _387  and  _388
REMARK  149  A    between atoms: _388  and  _389
REMARK  150  A    between atoms: _394  and  _397
REMARK  151  A    between atoms: _397  and  _398
REMARK  152  A    between atoms: _398  and  _399
REMARK  153  A    between atoms: _408  and  _409
REMARK  154  A    between atoms: _417  and  _419
REMARK  155  A    between atoms: _419  and  _420
REMARK  156  A    between atoms: _419  and  _422
REMARK  157  A    between atoms: _422  and  _423
REMARK  158  A    between atoms: _426  and  _428
REMARK  159  A    between atoms: _428  and  _429
REMARK  160  A    between atoms: _428  and  _431
REMARK  161  A    between atoms: _431  and  _432
REMARK  162  A    between atoms: _437  and  _438
REMARK  163  A    between atoms: _440  and  _442
REMARK  164  A    between atoms: _442  and  _443
REMARK  165  A    between atoms: _442  and  _445
REMARK  166  A    between atoms: _445  and  _446
REMARK  167  A    between atoms: _452  and  _454
REMARK  168  A    between atoms: _454  and  _455
REMARK  169  A    between atoms: _454  and  _457
REMARK  170  A    between atoms: _457  and  _458
REMARK  171  A    between atoms: _463  and  _464
REMARK  172  A    between atoms: _466  and  _468
REMARK  173  A    between atoms: _468  and  _469
REMARK  174  A    between atoms: _468  and  _471
REMARK  175  A    between atoms: _471  and  _472
REMARK  176  A    between atoms: _472  and  _473
REMARK  177  A    between atoms: _473  and  _474
REMARK  178  A    between atoms: _483  and  _485
REMARK  179  A    between atoms: _485  and  _486
REMARK  180  A    between atoms: _485  and  _488
REMARK  181  A    between atoms: _488  and  _489
REMARK  182  A    between atoms: _489  and  _490
REMARK  183  A    between atoms: _493  and  _495
REMARK  184  A    between atoms: _495  and  _496
REMARK  185  A    between atoms: _498  and  _500
REMARK  186  A    between atoms: _500  and  _501
REMARK  187  A    between atoms: _500  and  _503
REMARK  188  A    between atoms: _503  and  _504
REMARK  189  A    between atoms: _510  and  _511
REMARK  190  A    between atoms: _516  and  _518
REMARK  191  A    between atoms: _518  and  _519
REMARK  192  A    between atoms: _521  and  _523
REMARK  193  A    between atoms: _523  and  _524
REMARK  194  A    between atoms: _523  and  _526
REMARK  195  A    between atoms: _526  and  _527
REMARK  196  A    between atoms: _533  and  _535
REMARK  197  A    between atoms: _535  and  _536
REMARK  198  A    between atoms: _535  and  _538
REMARK  199  A    between atoms: _538  and  _539
REMARK  200  A    between atoms: _544  and  _546
REMARK  201  A    between atoms: _546  and  _547
REMARK  202  A    between atoms: _546  and  _549
REMARK  203  A    between atoms: _549  and  _550
REMARK  204  A    between atoms: _550  and  _551
REMARK  205  A    between atoms: _551  and  _552
REMARK  206  A    between atoms: _552  and  ZN_793
REMARK  207  A    between atoms: _554  and  _556
REMARK  208  A    between atoms: _556  and  _557
REMARK  209  A    between atoms: _560  and  _562
REMARK  210  A    between atoms: _562  and  _563
REMARK  211  A    between atoms: _562  and  _565
REMARK  212  A    between atoms: _565  and  _566
REMARK  213  A    between atoms: _569  and  _571
REMARK  214  A    between atoms: _571  and  _572
REMARK  215  A    between atoms: _575  and  _577
REMARK  216  A    between atoms: _577  and  _578
REMARK  217  A    between atoms: _577  and  _580
REMARK  218  A    between atoms: _580  and  _581
REMARK  219  A    between atoms: _584  and  _586
REMARK  220  A    between atoms: _586  and  _587
REMARK  221  A    between atoms: _586  and  _589
REMARK  222  A    between atoms: _589  and  _590
REMARK  223  A    between atoms: _590  and  _591
REMARK  224  A    between atoms: _591  and  _592
REMARK  225  A    between atoms: _592  and  _593
REMARK  226  A    between atoms: _597  and  _599
REMARK  227  A    between atoms: _599  and  _600
REMARK  228  A    between atoms: _599  and  _602
REMARK  229  A    between atoms: _602  and  _603
REMARK  230  A    between atoms: _609  and  _611
REMARK  231  A    between atoms: _611  and  _612
REMARK  232  A    between atoms: _611  and  _614
REMARK  233  A    between atoms: _614  and  _615
REMARK  234  A    between atoms: _621  and  _623
REMARK  235  A    between atoms: _623  and  _624
REMARK  236  A    between atoms: _623  and  _626
REMARK  237  A    between atoms: _626  and  _627
REMARK  238  A    between atoms: _629  and  _631
REMARK  239  A    between atoms: _631  and  _632
REMARK  240  A    between atoms: _631  and  _634
REMARK  241  A    between atoms: _637  and  _639
REMARK  242  A    between atoms: _639  and  _640
REMARK  243  A    between atoms: _639  and  _642
REMARK  244  A    between atoms: _642  and  _643
REMARK  245  A    between atoms: _643  and  _644
REMARK  246  A    between atoms: _644  and  _645
REMARK  247  A    between atoms: _645  and  _646
REMARK  248  A    between atoms: _650  and  _652
REMARK  249  A    between atoms: _652  and  _653
REMARK  250  A    between atoms: _652  and  _655
REMARK  251  A    between atoms: _655  and  _656
REMARK  252  A    between atoms: _662  and  _664
REMARK  253  A    between atoms: _664  and  _665
REMARK  254  A    between atoms: _664  and  _667
REMARK  255  A    between atoms: _667  and  _668
REMARK  256  A    between atoms: _673  and  _675
REMARK  257  A    between atoms: _675  and  _676
REMARK  258  A    between atoms: _675  and  _678
REMARK  259  A    between atoms: _678  and  _679
REMARK  260  A    between atoms: _681  and  _683
REMARK  261  A    between atoms: _683  and  _684
REMARK  262  A    between atoms: _683  and  _686
REMARK  263  A    between atoms: _686  and  _687
REMARK  264  A    between atoms: _689  and  _691
REMARK  265  A    between atoms: _691  and  _692
REMARK  266  A    between atoms: _691  and  _694
REMARK  267  A    between atoms: _698  and  _699
REMARK  268  A    between atoms: _704  and  _706
REMARK  269  A    between atoms: _706  and  _707
REMARK  270  A    between atoms: _706  and  _709
REMARK  271  A    between atoms: _709  and  _710
REMARK  272  A    between atoms: _715  and  _716
REMARK  273  A    between atoms: _718  and  _720
REMARK  274  A    between atoms: _720  and  _721
REMARK  275  A    between atoms: _720  and  _723
REMARK  276  A    between atoms: _723  and  _724
REMARK  277  A    between atoms: _724  and  _725
REMARK  278  A    between atoms: _725  and  _726
REMARK  279  A    between atoms: _735  and  _737
REMARK  280  A    between atoms: _737  and  _738
REMARK  281  A    between atoms: _737  and  _740
REMARK  282  A    between atoms: _740  and  _741
REMARK  283  A    between atoms: _746  and  _747
REMARK  284  A    between atoms: _749  and  _751
REMARK  285  A    between atoms: _751  and  _752
REMARK  286  A    between atoms: _751  and  _754
REMARK  287  A    between atoms: _754  and  _755
REMARK  288  A    between atoms: _761  and  _763
REMARK  289  A    between atoms: _763  and  _764
REMARK  290  A    between atoms: _763  and  _766
REMARK  291  A    between atoms: _766  and  _767
REMARK  292  A    between atoms: _769  and  _771
REMARK  293  A    between atoms: _771  and  _772
REMARK  294  A    between atoms: _771  and  _774
REMARK  295  A    between atoms: _774  and  _775
REMARK  296  A    between atoms: _781  and  _783
REMARK  297  A    between atoms: _783  and  _784
REMARK  298  A    between atoms: _783  and  _786
REMARK  299  A    between atoms: _786  and  _787
REMARK  300  A    between atoms: _787  and  _788
REMARK                            x       y       z     vdW  Elec       q    Type
REMARK                         _______ _______ _______ _____ _____    ______ ____
ROOT
ATOM      1  O   HOH     1       8.736 -14.661 -21.152  0.00  0.00    +0.000 OA
ENDROOT
TORSDOF 0
REMARK  Name = ../refined-set-2016/4ca5/4ca5_pocket.pdb
REMARK  300 active torsions:
REMARK  status: ('A' for Active; 'I' for Inactive)
REMARK    1  A    between atoms: _1  and  _3
REMARK    2  A    between atoms: _3  and  _4
REMARK    3  A    between atoms: _3  and  _6
REMARK    4  A    between atoms: _6  and  _7
REMARK    5  A    between atoms: _12  and  _14
REMARK    6  A    between atoms: _14  and  _15
REMARK    7  A    between atoms: _14  and  _17
REMARK    8  A    between atoms: _17  and  _18
REMARK    9  A    between atoms: _23  and  _25
REMARK   10  A    between atoms: _25  and  _26
REMARK   11  A    between atoms: _25  and  _28
REMARK   12  A    between atoms: _28  and  _29
REMARK   13  A    between atoms: _29  and  _30
REMARK   14  A    between atoms: _33  and  _35
REMARK   15  A    between atoms: _35  and  _36
REMARK   16  A    between atoms: _35  and  _38
REMARK   17  A    between atoms: _38  and  _39
REMARK   18  A    between atoms: _44  and  _45
REMARK   19  A    between atoms: _47  and  _49
REMARK   20  A    between atoms: _49  and  _50
REMARK   21  A    between atoms: _49  and  _52
REMARK   22  A    between atoms: _52  and  _53
REMARK   23  A    between atoms: _53  and  _54
REMARK   24  A    between atoms: _57  and  _59
REMARK   25  A    between atoms: _59  and  _60
REMARK   26  A    between atoms: _59  and  _62
REMARK   27  A    between atoms: _62  and  _63
REMARK   28  A    between atoms: _66  and  _68
REMARK   29  A    between atoms: _68  and  _69
REMARK   30  A    between atoms: _71  and  _73
REMARK   31  A    between atoms: _73  and  _74
REMARK   32  A    between atoms: _73  and  _76
REMARK   33  A    between atoms: _76  and  _77
REMARK   34  A    between atoms: _82  and  _84
REMARK   35  A    between atoms: _84  and  _85
REMARK   36  A    between atoms: _84  and  _87
REMARK   37  A    between atoms: _87  and  _88
REMARK   38  A    between atoms: _88  and  _89
REMARK   39  A    between atoms: _91  and  _93
REMARK   40  A    between atoms: _93  and  _94
REMARK   41  A    between atoms: _93  and  _96
REMARK   42  A    between atoms: _96  and  _97
REMARK   43  A    between atoms: _107  and  _109
REMARK   44  A    between atoms: _109  and  _110
REMARK   45  A    between atoms: _109  and  _112
REMARK   46  A    between atoms: _112  and  _113
REMARK   47  A    between atoms: _113  and  _114
REMARK   48  A    between atoms: _119  and  _121
REMARK   49  A    between atoms: _121  and  _122
REMARK   50  A    between atoms: _121  and  _124
REMARK   51  A    between atoms: _124  and  _125
REMARK   52  A    between atoms: _128  and  _130
REMARK   53  A    between atoms: _130  and  _131
REMARK   54  A    between atoms: _130  and  _133
REMARK   55  A    between atoms: _133  and  _134
REMARK   56  A    between atoms: _144  and  _146
REMARK   57  A    between atoms: _146  and  _147
REMARK   58  A    between atoms: _146  and  _149
REMARK   59  A    between atoms: _149  and  _150
REMARK   60  A    between atoms: _152  and  _154
REMARK   61  A    between atoms: _154  and  _155
REMARK   62  A    between atoms: _154  and  _157
REMARK   63  A    between atoms: _157  and  _158
REMARK   64  A    between atoms: _163  and  _165
REMARK   65  A    between atoms: _165  and  _166
REMARK   66  A    between atoms: _165  and  _168
REMARK   67  A    between atoms: _171  and  _173
REMARK   68  A    between atoms: _173  and  _174
REMARK   69  A    between atoms: _173  and  _176
REMARK   70  A    between atoms: _178  and  _180
REMARK   71  A    between atoms: _180  and  _181
REMARK   72  A    between atoms: _180  and  _183
REMARK   73  A    between atoms: _183  and  _184
REMARK   74  A    between atoms: _189  and  _191
REMARK   75  A    between atoms: _191  and  _192
REMARK   76  A    between atoms: _195  and  _197
REMARK   77  A    between atoms: _197  and  _198
REMARK   78  A    between atoms: _197  and  _200
REMARK   79  A    between atoms: _200  and  _201
REMARK   80  A    between atoms: _203  and  _205
REMARK   81  A    between atoms: _205  and  _206
REMARK   82  A    between atoms: _209  and  _211
REMARK   83  A    between atoms: _211  and  _212
REMARK   84  A    between atoms: _211  and  _214
REMARK   85  A    between atoms: _214  and  _215
REMARK   86  A    between atoms: _225  and  _227
REMARK   87  A    between atoms: _227  and  _228
REMARK   88  A    between atoms: _227  and  _230
REMARK   89  A    between atoms: _230  and  _231
REMARK   90  A    between atoms: _234  and  _236
REMARK   91  A    between atoms: _236  and  _237
REMARK   92  A    between atoms: _236  and  _239
REMARK   93  A    between atoms: _239  and  _240
REMARK   94  A    between atoms: _245  and  _246
REMARK   95  A    between atoms: _248  and  _250
REMARK   96  A    between atoms: _250  and  _251
REMARK   97  A    between atoms: _250  and  _253
REMARK   98  A    between atoms: _253  and  _254
REMARK   99  A    between atoms: _254  and  _255
REMARK  100  A    between atoms: _255  and  _256
REMARK  101  A    between atoms: _265  and  _267
REMARK  102  A    between atoms: _267  and  _268
REMARK  103  A    between atoms: _267  and  _270
REMARK  104  A    between atoms: _270  and  _271
REMARK  105  A    between atoms: _274  and  _276
REMARK  106  A    between atoms: _276  and  _277
REMARK  107  A    between atoms: _276  and  _279
REMARK  108  A    between atoms: _279  and  _280
REMARK  109  A    between atoms: _280  and  _281
REMARK  110  A    between atoms: _281  and  _282
REMARK  111  A    between atoms: _282  and  _283
REMARK  112  A    between atoms: _287  and  _289
REMARK  113  A    between atoms: _289  and  _290
REMARK  114  A    between atoms: _289  and  _292
REMARK  115  A    between atoms: _292  and  _293
REMARK  116  A    between atoms: _293  and  _294
REMARK  117  A    between atoms: _299  and  _301
REMARK  118  A    between atoms: _301  and  _302
REMARK  119  A    between atoms: _301  and  _304
REMARK  120  A    between atoms: _304  and  _305
REMARK  121  A    between atoms: _310  and  _312
REMARK  122  A    between atoms: _312  and  _313
REMARK  123  A    between atoms: _312  and  _315
REMARK  124  A    between atoms: _315  and  _316
REMARK  125  A    between atoms: _319  and  _321
REMARK  126  A    between atoms: _321  and  _322
REMARK  127  A    between atoms: _321  and  _324
REMARK  128  A    between atoms: _324  and  _325
REMARK  129  A    between atoms: _325  and  _326
REMARK  130  A    between atoms: _329  and  _331
REMARK  131  A    between atoms: _331  and  _332
REMARK  132  A    between atoms: _331  and  _334
REMARK  133  A    between atoms: _334  and  _335
REMARK  134  A    between atoms: _338  and  _340
REMARK  135  A    between atoms: _340  and  _341
REMARK  136  A    between atoms: _340  and  _343
REMARK  137  A    between atoms: _346  and  _348
REMARK  138  A    between atoms: _348  and  _349
REMARK  139  A    between atoms: _348  and  _351
REMARK  140  A    between atoms: _354  and  _356
REMARK  141  A    between atoms: _356  and  _357
REMARK  142  A    between atoms: _360  and  _362
REMARK  143  A    between atoms: _362  and  _363
REMARK  144  A    between atoms: _362  and  _365
REMARK  145  A    between atoms: _365  and  _366
REMARK  146  A    between atoms: _371  and  _373
REMARK  147  A    between atoms: _384  and  _387
REMARK  148  A    between atoms: _387  and  _388
REMARK  149  A    between atoms: _388  and  _389
REMARK  150  A    between atoms: _394  and  _397
REMARK  151  A    between atoms: _397  and  _398
REMARK  152  A    between atoms: _398  and  _399
REMARK  153  A    between atoms: _408  and  _409
REMARK  154  A    between atoms: _417  and  _419
REMARK  155  A    between atoms: _419  and  _420
REMARK  156  A    between atoms: _419  and  _422
REMARK  157  A    between atoms: _422  and  _423
REMARK  158  A    between atoms: _426  and  _428
REMARK  159  A    between atoms: _428  and  _429
REMARK  160  A    between atoms: _428  and  _431
REMARK  161  A    between atoms: _431  and  _432
REMARK  162  A    between atoms: _437  and  _438
REMARK  163  A    between atoms: _440  and  _442
REMARK  164  A    between atoms: _442  and  _443
REMARK  165  A    between atoms: _442  and  _445
REMARK  166  A    between atoms: _445  and  _446
REMARK  167  A    between atoms: _452  and  _454
REMARK  168  A    between atoms: _454  and  _455
REMARK  169  A    between atoms: _454  and  _457
REMARK  170  A    between atoms: _457  and  _458
REMARK  171  A    between atoms: _463  and  _464
REMARK  172  A    between atoms: _466  and  _468
REMARK  173  A    between atoms: _468  and  _469
REMARK  174  A    between atoms: _468  and  _471
REMARK  175  A    between atoms: _471  and  _472
REMARK  176  A    between atoms: _472  and  _473
REMARK  177  A    between atoms: _473  and  _474
REMARK  178  A    between atoms: _483  and  _485
REMARK  179  A    between atoms: _485  and  _486
REMARK  180  A    between atoms: _485  and  _488
REMARK  181  A    between atoms: _488  and  _489
REMARK  182  A    between atoms: _489  and  _490
REMARK  183  A    between atoms: _493  and  _495
REMARK  184  A    between atoms: _495  and  _496
REMARK  185  A    between atoms: _498  and  _500
REMARK  186  A    between atoms: _500  and  _501
REMARK  187  A    between atoms: _500  and  _503
REMARK  188  A    between atoms: _503  and  _504
REMARK  189  A    between atoms: _510  and  _511
REMARK  190  A    between atoms: _516  and  _518
REMARK  191  A    between atoms: _518  and  _519
REMARK  192  A    between atoms: _521  and  _523
REMARK  193  A    between atoms: _523  and  _524
REMARK  194  A    between atoms: _523  and  _526
REMARK  195  A    between atoms: _526  and  _527
REMARK  196  A    between atoms: _533  and  _535
REMARK  197  A    between atoms: _535  and  _536
REMARK  198  A    between atoms: _535  and  _538
REMARK  199  A    between atoms: _538  and  _539
REMARK  200  A    between atoms: _544  and  _546
REMARK  201  A    between atoms: _546  and  _547
REMARK  202  A    between atoms: _546  and  _549
REMARK  203  A    between atoms: _549  and  _550
REMARK  204  A    between atoms: _550  and  _551
REMARK  205  A    between atoms: _551  and  _552
REMARK  206  A    between atoms: _552  and  ZN_793
REMARK  207  A    between atoms: _554  and  _556
REMARK  208  A    between atoms: _556  and  _557
REMARK  209  A    between atoms: _560  and  _562
REMARK  210  A    between atoms: _562  and  _563
REMARK  211  A    between atoms: _562  and  _565
REMARK  212  A    between atoms: _565  and  _566
REMARK  213  A    between atoms: _569  and  _571
REMARK  214  A    between atoms: _571  and  _572
REMARK  215  A    between atoms: _575  and  _577
REMARK  216  A    between atoms: _577  and  _578
REMARK  217  A    between atoms: _577  and  _580
REMARK  218  A    between atoms: _580  and  _581
REMARK  219  A    between atoms: _584  and  _586
REMARK  220  A    between atoms: _586  and  _587
REMARK  221  A    between atoms: _586  and  _589
REMARK  222  A    between atoms: _589  and  _590
REMARK  223  A    between atoms: _590  and  _591
REMARK  224  A    between atoms: _591  and  _592
REMARK  225  A    between atoms: _592  and  _593
REMARK  226  A    between atoms: _597  and  _599
REMARK  227  A    between atoms: _599  and  _600
REMARK  228  A    between atoms: _599  and  _602
REMARK  229  A    between atoms: _602  and  _603
REMARK  230  A    between atoms: _609  and  _611
REMARK  231  A    between atoms: _611  and  _612
REMARK  232  A    between atoms: _611  and  _614
REMARK  233  A    between atoms: _614  and  _615
REMARK  234  A    between atoms: _621  and  _623
REMARK  235  A    between atoms: _623  and  _624
REMARK  236  A    between atoms: _623  and  _626
REMARK  237  A    between atoms: _626  and  _627
REMARK  238  A    between atoms: _629  and  _631
REMARK  239  A    between atoms: _631  and  _632
REMARK  240  A    between atoms: _631  and  _634
REMARK  241  A    between atoms: _637  and  _639
REMARK  242  A    between atoms: _639  and  _640
REMARK  243  A    between atoms: _639  and  _642
REMARK  244  A    between atoms: _642  and  _643
REMARK  245  A    between atoms: _643  and  _644
REMARK  246  A    between atoms: _644  and  _645
REMARK  247  A    between atoms: _645  and  _646
REMARK  248  A    between atoms: _650  and  _652
REMARK  249  A    between atoms: _652  and  _653
REMARK  250  A    between atoms: _652  and  _655
REMARK  251  A    between atoms: _655  and  _656
REMARK  252  A    between atoms: _662  and  _664
REMARK  253  A    between atoms: _664  and  _665
REMARK  254  A    between atoms: _664  and  _667
REMARK  255  A    between atoms: _667  and  _668
REMARK  256  A    between atoms: _673  and  _675
REMARK  257  A    between atoms: _675  and  _676
REMARK  258  A    between atoms: _675  and  _678
REMARK  259  A    between atoms: _678  and  _679
REMARK  260  A    between atoms: _681  and  _683
REMARK  261  A    between atoms: _683  and  _684
REMARK  262  A    between atoms: _683  and  _686
REMARK  263  A    between atoms: _686  and  _687
REMARK  264  A    between atoms: _689  and  _691
REMARK  265  A    between atoms: _691  and  _692
REMARK  266  A    between atoms: _691  and  _694
REMARK  267  A    between atoms: _698  and  _699
REMARK  268  A    between atoms: _704  and  _706
REMARK  269  A    between atoms: _706  and  _707
REMARK  270  A    between atoms: _706  and  _709
REMARK  271  A    between atoms: _709  and  _710
REMARK  272  A    between atoms: _715  and  _716
REMARK  273  A    between atoms: _718  and  _720
REMARK  274  A    between atoms: _720  and  _721
REMARK  275  A    between atoms: _720  and  _723
REMARK  276  A    between atoms: _723  and  _724
REMARK  277  A    between atoms: _724  and  _725
REMARK  278  A    between atoms: _725  and  _726
REMARK  279  A    between atoms: _735  and  _737
REMARK  280  A    between atoms: _737  and  _738
REMARK  281  A    between atoms: _737  and  _740
REMARK  282  A    between atoms: _740  and  _741
REMARK  283  A    between atoms: _746  and  _747
REMARK  284  A    between atoms: _749  and  _751
REMARK  285  A    between atoms: _751  and  _752
REMARK  286  A    between atoms: _751  and  _754
REMARK  287  A    between atoms: _754  and  _755
REMARK  288  A    between atoms: _761  and  _763
REMARK  289  A    between atoms: _763  and  _764
REMARK  290  A    between atoms: _763  and  _766
REMARK  291  A    between atoms: _766  and  _767
REMARK  292  A    between atoms: _769  and  _771
REMARK  293  A    between atoms: _771  and  _772
REMARK  294  A    between atoms: _771  and  _774
REMARK  295  A    between atoms: _774  and  _775
REMARK  296  A    between atoms: _781  and  _783
REMARK  297  A    between atoms: _783  and  _784
REMARK  298  A    between atoms: _783  and  _786
REMARK  299  A    between atoms: _786  and  _787
REMARK  300  A    between atoms: _787  and  _788
REMARK                            x       y       z     vdW  Elec       q    Type
REMARK                         _______ _______ _______ _____ _____    ______ ____
ROOT
ATOM      1  O   HOH     1       8.506 -12.897 -23.557  0.00  0.00    +0.000 OA
ENDROOT
TORSDOF 0
REMARK  Name = ../refined-set-2016/4ca5/4ca5_pocket.pdb
REMARK  300 active torsions:
REMARK  status: ('A' for Active; 'I' for Inactive)
REMARK    1  A    between atoms: _1  and  _3
REMARK    2  A    between atoms: _3  and  _4
REMARK    3  A    between atoms: _3  and  _6
REMARK    4  A    between atoms: _6  and  _7
REMARK    5  A    between atoms: _12  and  _14
REMARK    6  A    between atoms: _14  and  _15
REMARK    7  A    between atoms: _14  and  _17
REMARK    8  A    between atoms: _17  and  _18
REMARK    9  A    between atoms: _23  and  _25
REMARK   10  A    between atoms: _25  and  _26
REMARK   11  A    between atoms: _25  and  _28
REMARK   12  A    between atoms: _28  and  _29
REMARK   13  A    between atoms: _29  and  _30
REMARK   14  A    between atoms: _33  and  _35
REMARK   15  A    between atoms: _35  and  _36
REMARK   16  A    between atoms: _35  and  _38
REMARK   17  A    between atoms: _38  and  _39
REMARK   18  A    between atoms: _44  and  _45
REMARK   19  A    between atoms: _47  and  _49
REMARK   20  A    between atoms: _49  and  _50
REMARK   21  A    between atoms: _49  and  _52
REMARK   22  A    between atoms: _52  and  _53
REMARK   23  A    between atoms: _53  and  _54
REMARK   24  A    between atoms: _57  and  _59
REMARK   25  A    between atoms: _59  and  _60
REMARK   26  A    between atoms: _59  and  _62
REMARK   27  A    between atoms: _62  and  _63
REMARK   28  A    between atoms: _66  and  _68
REMARK   29  A    between atoms: _68  and  _69
REMARK   30  A    between atoms: _71  and  _73
REMARK   31  A    between atoms: _73  and  _74
REMARK   32  A    between atoms: _73  and  _76
REMARK   33  A    between atoms: _76  and  _77
REMARK   34  A    between atoms: _82  and  _84
REMARK   35  A    between atoms: _84  and  _85
REMARK   36  A    between atoms: _84  and  _87
REMARK   37  A    between atoms: _87  and  _88
REMARK   38  A    between atoms: _88  and  _89
REMARK   39  A    between atoms: _91  and  _93
REMARK   40  A    between atoms: _93  and  _94
REMARK   41  A    between atoms: _93  and  _96
REMARK   42  A    between atoms: _96  and  _97
REMARK   43  A    between atoms: _107  and  _109
REMARK   44  A    between atoms: _109  and  _110
REMARK   45  A    between atoms: _109  and  _112
REMARK   46  A    between atoms: _112  and  _113
REMARK   47  A    between atoms: _113  and  _114
REMARK   48  A    between atoms: _119  and  _121
REMARK   49  A    between atoms: _121  and  _122
REMARK   50  A    between atoms: _121  and  _124
REMARK   51  A    between atoms: _124  and  _125
REMARK   52  A    between atoms: _128  and  _130
REMARK   53  A    between atoms: _130  and  _131
REMARK   54  A    between atoms: _130  and  _133
REMARK   55  A    between atoms: _133  and  _134
REMARK   56  A    between atoms: _144  and  _146
REMARK   57  A    between atoms: _146  and  _147
REMARK   58  A    between atoms: _146  and  _149
REMARK   59  A    between atoms: _149  and  _150
REMARK   60  A    between atoms: _152  and  _154
REMARK   61  A    between atoms: _154  and  _155
REMARK   62  A    between atoms: _154  and  _157
REMARK   63  A    between atoms: _157  and  _158
REMARK   64  A    between atoms: _163  and  _165
REMARK   65  A    between atoms: _165  and  _166
REMARK   66  A    between atoms: _165  and  _168
REMARK   67  A    between atoms: _171  and  _173
REMARK   68  A    between atoms: _173  and  _174
REMARK   69  A    between atoms: _173  and  _176
REMARK   70  A    between atoms: _178  and  _180
REMARK   71  A    between atoms: _180  and  _181
REMARK   72  A    between atoms: _180  and  _183
REMARK   73  A    between atoms: _183  and  _184
REMARK   74  A    between atoms: _189  and  _191
REMARK   75  A    between atoms: _191  and  _192
REMARK   76  A    between atoms: _195  and  _197
REMARK   77  A    between atoms: _197  and  _198
REMARK   78  A    between atoms: _197  and  _200
REMARK   79  A    between atoms: _200  and  _201
REMARK   80  A    between atoms: _203  and  _205
REMARK   81  A    between atoms: _205  and  _206
REMARK   82  A    between atoms: _209  and  _211
REMARK   83  A    between atoms: _211  and  _212
REMARK   84  A    between atoms: _211  and  _214
REMARK   85  A    between atoms: _214  and  _215
REMARK   86  A    between atoms: _225  and  _227
REMARK   87  A    between atoms: _227  and  _228
REMARK   88  A    between atoms: _227  and  _230
REMARK   89  A    between atoms: _230  and  _231
REMARK   90  A    between atoms: _234  and  _236
REMARK   91  A    between atoms: _236  and  _237
REMARK   92  A    between atoms: _236  and  _239
REMARK   93  A    between atoms: _239  and  _240
REMARK   94  A    between atoms: _245  and  _246
REMARK   95  A    between atoms: _248  and  _250
REMARK   96  A    between atoms: _250  and  _251
REMARK   97  A    between atoms: _250  and  _253
REMARK   98  A    between atoms: _253  and  _254
REMARK   99  A    between atoms: _254  and  _255
REMARK  100  A    between atoms: _255  and  _256
REMARK  101  A    between atoms: _265  and  _267
REMARK  102  A    between atoms: _267  and  _268
REMARK  103  A    between atoms: _267  and  _270
REMARK  104  A    between atoms: _270  and  _271
REMARK  105  A    between atoms: _274  and  _276
REMARK  106  A    between atoms: _276  and  _277
REMARK  107  A    between atoms: _276  and  _279
REMARK  108  A    between atoms: _279  and  _280
REMARK  109  A    between atoms: _280  and  _281
REMARK  110  A    between atoms: _281  and  _282
REMARK  111  A    between atoms: _282  and  _283
REMARK  112  A    between atoms: _287  and  _289
REMARK  113  A    between atoms: _289  and  _290
REMARK  114  A    between atoms: _289  and  _292
REMARK  115  A    between atoms: _292  and  _293
REMARK  116  A    between atoms: _293  and  _294
REMARK  117  A    between atoms: _299  and  _301
REMARK  118  A    between atoms: _301  and  _302
REMARK  119  A    between atoms: _301  and  _304
REMARK  120  A    between atoms: _304  and  _305
REMARK  121  A    between atoms: _310  and  _312
REMARK  122  A    between atoms: _312  and  _313
REMARK  123  A    between atoms: _312  and  _315
REMARK  124  A    between atoms: _315  and  _316
REMARK  125  A    between atoms: _319  and  _321
REMARK  126  A    between atoms: _321  and  _322
REMARK  127  A    between atoms: _321  and  _324
REMARK  128  A    between atoms: _324  and  _325
REMARK  129  A    between atoms: _325  and  _326
REMARK  130  A    between atoms: _329  and  _331
REMARK  131  A    between atoms: _331  and  _332
REMARK  132  A    between atoms: _331  and  _334
REMARK  133  A    between atoms: _334  and  _335
REMARK  134  A    between atoms: _338  and  _340
REMARK  135  A    between atoms: _340  and  _341
REMARK  136  A    between atoms: _340  and  _343
REMARK  137  A    between atoms: _346  and  _348
REMARK  138  A    between atoms: _348  and  _349
REMARK  139  A    between atoms: _348  and  _351
REMARK  140  A    between atoms: _354  and  _356
REMARK  141  A    between atoms: _356  and  _357
REMARK  142  A    between atoms: _360  and  _362
REMARK  143  A    between atoms: _362  and  _363
REMARK  144  A    between atoms: _362  and  _365
REMARK  145  A    between atoms: _365  and  _366
REMARK  146  A    between atoms: _371  and  _373
REMARK  147  A    between atoms: _384  and  _387
REMARK  148  A    between atoms: _387  and  _388
REMARK  149  A    between atoms: _388  and  _389
REMARK  150  A    between atoms: _394  and  _397
REMARK  151  A    between atoms: _397  and  _398
REMARK  152  A    between atoms: _398  and  _399
REMARK  153  A    between atoms: _408  and  _409
REMARK  154  A    between atoms: _417  and  _419
REMARK  155  A    between atoms: _419  and  _420
REMARK  156  A    between atoms: _419  and  _422
REMARK  157  A    between atoms: _422  and  _423
REMARK  158  A    between atoms: _426  and  _428
REMARK  159  A    between atoms: _428  and  _429
REMARK  160  A    between atoms: _428  and  _431
REMARK  161  A    between atoms: _431  and  _432
REMARK  162  A    between atoms: _437  and  _438
REMARK  163  A    between atoms: _440  and  _442
REMARK  164  A    between atoms: _442  and  _443
REMARK  165  A    between atoms: _442  and  _445
REMARK  166  A    between atoms: _445  and  _446
REMARK  167  A    between atoms: _452  and  _454
REMARK  168  A    between atoms: _454  and  _455
REMARK  169  A    between atoms: _454  and  _457
REMARK  170  A    between atoms: _457  and  _458
REMARK  171  A    between atoms: _463  and  _464
REMARK  172  A    between atoms: _466  and  _468
REMARK  173  A    between atoms: _468  and  _469
REMARK  174  A    between atoms: _468  and  _471
REMARK  175  A    between atoms: _471  and  _472
REMARK  176  A    between atoms: _472  and  _473
REMARK  177  A    between atoms: _473  and  _474
REMARK  178  A    between atoms: _483  and  _485
REMARK  179  A    between atoms: _485  and  _486
REMARK  180  A    between atoms: _485  and  _488
REMARK  181  A    between atoms: _488  and  _489
REMARK  182  A    between atoms: _489  and  _490
REMARK  183  A    between atoms: _493  and  _495
REMARK  184  A    between atoms: _495  and  _496
REMARK  185  A    between atoms: _498  and  _500
REMARK  186  A    between atoms: _500  and  _501
REMARK  187  A    between atoms: _500  and  _503
REMARK  188  A    between atoms: _503  and  _504
REMARK  189  A    between atoms: _510  and  _511
REMARK  190  A    between atoms: _516  and  _518
REMARK  191  A    between atoms: _518  and  _519
REMARK  192  A    between atoms: _521  and  _523
REMARK  193  A    between atoms: _523  and  _524
REMARK  194  A    between atoms: _523  and  _526
REMARK  195  A    between atoms: _526  and  _527
REMARK  196  A    between atoms: _533  and  _535
REMARK  197  A    between atoms: _535  and  _536
REMARK  198  A    between atoms: _535  and  _538
REMARK  199  A    between atoms: _538  and  _539
REMARK  200  A    between atoms: _544  and  _546
REMARK  201  A    between atoms: _546  and  _547
REMARK  202  A    between atoms: _546  and  _549
REMARK  203  A    between atoms: _549  and  _550
REMARK  204  A    between atoms: _550  and  _551
REMARK  205  A    between atoms: _551  and  _552
REMARK  206  A    between atoms: _552  and  ZN_793
REMARK  207  A    between atoms: _554  and  _556
REMARK  208  A    between atoms: _556  and  _557
REMARK  209  A    between atoms: _560  and  _562
REMARK  210  A    between atoms: _562  and  _563
REMARK  211  A    between atoms: _562  and  _565
REMARK  212  A    between atoms: _565  and  _566
REMARK  213  A    between atoms: _569  and  _571
REMARK  214  A    between atoms: _571  and  _572
REMARK  215  A    between atoms: _575  and  _577
REMARK  216  A    between atoms: _577  and  _578
REMARK  217  A    between atoms: _577  and  _580
REMARK  218  A    between atoms: _580  and  _581
REMARK  219  A    between atoms: _584  and  _586
REMARK  220  A    between atoms: _586  and  _587
REMARK  221  A    between atoms: _586  and  _589
REMARK  222  A    between atoms: _589  and  _590
REMARK  223  A    between atoms: _590  and  _591
REMARK  224  A    between atoms: _591  and  _592
REMARK  225  A    between atoms: _592  and  _593
REMARK  226  A    between atoms: _597  and  _599
REMARK  227  A    between atoms: _599  and  _600
REMARK  228  A    between atoms: _599  and  _602
REMARK  229  A    between atoms: _602  and  _603
REMARK  230  A    between atoms: _609  and  _611
REMARK  231  A    between atoms: _611  and  _612
REMARK  232  A    between atoms: _611  and  _614
REMARK  233  A    between atoms: _614  and  _615
REMARK  234  A    between atoms: _621  and  _623
REMARK  235  A    between atoms: _623  and  _624
REMARK  236  A    between atoms: _623  and  _626
REMARK  237  A    between atoms: _626  and  _627
REMARK  238  A    between atoms: _629  and  _631
REMARK  239  A    between atoms: _631  and  _632
REMARK  240  A    between atoms: _631  and  _634
REMARK  241  A    between atoms: _637  and  _639
REMARK  242  A    between atoms: _639  and  _640
REMARK  243  A    between atoms: _639  and  _642
REMARK  244  A    between atoms: _642  and  _643
REMARK  245  A    between atoms: _643  and  _644
REMARK  246  A    between atoms: _644  and  _645
REMARK  247  A    between atoms: _645  and  _646
REMARK  248  A    between atoms: _650  and  _652
REMARK  249  A    between atoms: _652  and  _653
REMARK  250  A    between atoms: _652  and  _655
REMARK  251  A    between atoms: _655  and  _656
REMARK  252  A    between atoms: _662  and  _664
REMARK  253  A    between atoms: _664  and  _665
REMARK  254  A    between atoms: _664  and  _667
REMARK  255  A    between atoms: _667  and  _668
REMARK  256  A    between atoms: _673  and  _675
REMARK  257  A    between atoms: _675  and  _676
REMARK  258  A    between atoms: _675  and  _678
REMARK  259  A    between atoms: _678  and  _679
REMARK  260  A    between atoms: _681  and  _683
REMARK  261  A    between atoms: _683  and  _684
REMARK  262  A    between atoms: _683  and  _686
REMARK  263  A    between atoms: _686  and  _687
REMARK  264  A    between atoms: _689  and  _691
REMARK  265  A    between atoms: _691  and  _692
REMARK  266  A    between atoms: _691  and  _694
REMARK  267  A    between atoms: _698  and  _699
REMARK  268  A    between atoms: _704  and  _706
REMARK  269  A    between atoms: _706  and  _707
REMARK  270  A    between atoms: _706  and  _709
REMARK  271  A    between atoms: _709  and  _710
REMARK  272  A    between atoms: _715  and  _716
REMARK  273  A    between atoms: _718  and  _720
REMARK  274  A    between atoms: _720  and  _721
REMARK  275  A    between atoms: _720  and  _723
REMARK  276  A    between atoms: _723  and  _724
REMARK  277  A    between atoms: _724  and  _725
REMARK  278  A    between atoms: _725  and  _726
REMARK  279  A    between atoms: _735  and  _737
REMARK  280  A    between atoms: _737  and  _738
REMARK  281  A    between atoms: _737  and  _740
REMARK  282  A    between atoms: _740  and  _741
REMARK  283  A    between atoms: _746  and  _747
REMARK  284  A    between atoms: _749  and  _751
REMARK  285  A    between atoms: _751  and  _752
REMARK  286  A    between atoms: _751  and  _754
REMARK  287  A    between atoms: _754  and  _755
REMARK  288  A    between atoms: _761  and  _763
REMARK  289  A    between atoms: _763  and  _764
REMARK  290  A    between atoms: _763  and  _766
REMARK  291  A    between atoms: _766  and  _767
REMARK  292  A    between atoms: _769  and  _771
REMARK  293  A    between atoms: _771  and  _772
REMARK  294  A    between atoms: _771  and  _774
REMARK  295  A    between atoms: _774  and  _775
REMARK  296  A    between atoms: _781  and  _783
REMARK  297  A    between atoms: _783  and  _784
REMARK  298  A    between atoms: _783  and  _786
REMARK  299  A    between atoms: _786  and  _787
REMARK  300  A    between atoms: _787  and  _788
REMARK                            x       y       z     vdW  Elec       q    Type
REMARK                         _______ _______ _______ _____ _____    ______ ____
ROOT
ATOM      1  O   HOH     1      15.564 -15.531 -18.020  0.00  0.00    +0.000 OA
ENDROOT
TORSDOF 0
REMARK  Name = ../refined-set-2016/4ca5/4ca5_pocket.pdb
REMARK  300 active torsions:
REMARK  status: ('A' for Active; 'I' for Inactive)
REMARK    1  A    between atoms: _1  and  _3
REMARK    2  A    between atoms: _3  and  _4
REMARK    3  A    between atoms: _3  and  _6
REMARK    4  A    between atoms: _6  and  _7
REMARK    5  A    between atoms: _12  and  _14
REMARK    6  A    between atoms: _14  and  _15
REMARK    7  A    between atoms: _14  and  _17
REMARK    8  A    between atoms: _17  and  _18
REMARK    9  A    between atoms: _23  and  _25
REMARK   10  A    between atoms: _25  and  _26
REMARK   11  A    between atoms: _25  and  _28
REMARK   12  A    between atoms: _28  and  _29
REMARK   13  A    between atoms: _29  and  _30
REMARK   14  A    between atoms: _33  and  _35
REMARK   15  A    between atoms: _35  and  _36
REMARK   16  A    between atoms: _35  and  _38
REMARK   17  A    between atoms: _38  and  _39
REMARK   18  A    between atoms: _44  and  _45
REMARK   19  A    between atoms: _47  and  _49
REMARK   20  A    between atoms: _49  and  _50
REMARK   21  A    between atoms: _49  and  _52
REMARK   22  A    between atoms: _52  and  _53
REMARK   23  A    between atoms: _53  and  _54
REMARK   24  A    between atoms: _57  and  _59
REMARK   25  A    between atoms: _59  and  _60
REMARK   26  A    between atoms: _59  and  _62
REMARK   27  A    between atoms: _62  and  _63
REMARK   28  A    between atoms: _66  and  _68
REMARK   29  A    between atoms: _68  and  _69
REMARK   30  A    between atoms: _71  and  _73
REMARK   31  A    between atoms: _73  and  _74
REMARK   32  A    between atoms: _73  and  _76
REMARK   33  A    between atoms: _76  and  _77
REMARK   34  A    between atoms: _82  and  _84
REMARK   35  A    between atoms: _84  and  _85
REMARK   36  A    between atoms: _84  and  _87
REMARK   37  A    between atoms: _87  and  _88
REMARK   38  A    between atoms: _88  and  _89
REMARK   39  A    between atoms: _91  and  _93
REMARK   40  A    between atoms: _93  and  _94
REMARK   41  A    between atoms: _93  and  _96
REMARK   42  A    between atoms: _96  and  _97
REMARK   43  A    between atoms: _107  and  _109
REMARK   44  A    between atoms: _109  and  _110
REMARK   45  A    between atoms: _109  and  _112
REMARK   46  A    between atoms: _112  and  _113
REMARK   47  A    between atoms: _113  and  _114
REMARK   48  A    between atoms: _119  and  _121
REMARK   49  A    between atoms: _121  and  _122
REMARK   50  A    between atoms: _121  and  _124
REMARK   51  A    between atoms: _124  and  _125
REMARK   52  A    between atoms: _128  and  _130
REMARK   53  A    between atoms: _130  and  _131
REMARK   54  A    between atoms: _130  and  _133
REMARK   55  A    between atoms: _133  and  _134
REMARK   56  A    between atoms: _144  and  _146
REMARK   57  A    between atoms: _146  and  _147
REMARK   58  A    between atoms: _146  and  _149
REMARK   59  A    between atoms: _149  and  _150
REMARK   60  A    between atoms: _152  and  _154
REMARK   61  A    between atoms: _154  and  _155
REMARK   62  A    between atoms: _154  and  _157
REMARK   63  A    between atoms: _157  and  _158
REMARK   64  A    between atoms: _163  and  _165
REMARK   65  A    between atoms: _165  and  _166
REMARK   66  A    between atoms: _165  and  _168
REMARK   67  A    between atoms: _171  and  _173
REMARK   68  A    between atoms: _173  and  _174
REMARK   69  A    between atoms: _173  and  _176
REMARK   70  A    between atoms: _178  and  _180
REMARK   71  A    between atoms: _180  and  _181
REMARK   72  A    between atoms: _180  and  _183
REMARK   73  A    between atoms: _183  and  _184
REMARK   74  A    between atoms: _189  and  _191
REMARK   75  A    between atoms: _191  and  _192
REMARK   76  A    between atoms: _195  and  _197
REMARK   77  A    between atoms: _197  and  _198
REMARK   78  A    between atoms: _197  and  _200
REMARK   79  A    between atoms: _200  and  _201
REMARK   80  A    between atoms: _203  and  _205
REMARK   81  A    between atoms: _205  and  _206
REMARK   82  A    between atoms: _209  and  _211
REMARK   83  A    between atoms: _211  and  _212
REMARK   84  A    between atoms: _211  and  _214
REMARK   85  A    between atoms: _214  and  _215
REMARK   86  A    between atoms: _225  and  _227
REMARK   87  A    between atoms: _227  and  _228
REMARK   88  A    between atoms: _227  and  _230
REMARK   89  A    between atoms: _230  and  _231
REMARK   90  A    between atoms: _234  and  _236
REMARK   91  A    between atoms: _236  and  _237
REMARK   92  A    between atoms: _236  and  _239
REMARK   93  A    between atoms: _239  and  _240
REMARK   94  A    between atoms: _245  and  _246
REMARK   95  A    between atoms: _248  and  _250
REMARK   96  A    between atoms: _250  and  _251
REMARK   97  A    between atoms: _250  and  _253
REMARK   98  A    between atoms: _253  and  _254
REMARK   99  A    between atoms: _254  and  _255
REMARK  100  A    between atoms: _255  and  _256
REMARK  101  A    between atoms: _265  and  _267
REMARK  102  A    between atoms: _267  and  _268
REMARK  103  A    between atoms: _267  and  _270
REMARK  104  A    between atoms: _270  and  _271
REMARK  105  A    between atoms: _274  and  _276
REMARK  106  A    between atoms: _276  and  _277
REMARK  107  A    between atoms: _276  and  _279
REMARK  108  A    between atoms: _279  and  _280
REMARK  109  A    between atoms: _280  and  _281
REMARK  110  A    between atoms: _281  and  _282
REMARK  111  A    between atoms: _282  and  _283
REMARK  112  A    between atoms: _287  and  _289
REMARK  113  A    between atoms: _289  and  _290
REMARK  114  A    between atoms: _289  and  _292
REMARK  115  A    between atoms: _292  and  _293
REMARK  116  A    between atoms: _293  and  _294
REMARK  117  A    between atoms: _299  and  _301
REMARK  118  A    between atoms: _301  and  _302
REMARK  119  A    between atoms: _301  and  _304
REMARK  120  A    between atoms: _304  and  _305
REMARK  121  A    between atoms: _310  and  _312
REMARK  122  A    between atoms: _312  and  _313
REMARK  123  A    between atoms: _312  and  _315
REMARK  124  A    between atoms: _315  and  _316
REMARK  125  A    between atoms: _319  and  _321
REMARK  126  A    between atoms: _321  and  _322
REMARK  127  A    between atoms: _321  and  _324
REMARK  128  A    between atoms: _324  and  _325
REMARK  129  A    between atoms: _325  and  _326
REMARK  130  A    between atoms: _329  and  _331
REMARK  131  A    between atoms: _331  and  _332
REMARK  132  A    between atoms: _331  and  _334
REMARK  133  A    between atoms: _334  and  _335
REMARK  134  A    between atoms: _338  and  _340
REMARK  135  A    between atoms: _340  and  _341
REMARK  136  A    between atoms: _340  and  _343
REMARK  137  A    between atoms: _346  and  _348
REMARK  138  A    between atoms: _348  and  _349
REMARK  139  A    between atoms: _348  and  _351
REMARK  140  A    between atoms: _354  and  _356
REMARK  141  A    between atoms: _356  and  _357
REMARK  142  A    between atoms: _360  and  _362
REMARK  143  A    between atoms: _362  and  _363
REMARK  144  A    between atoms: _362  and  _365
REMARK  145  A    between atoms: _365  and  _366
REMARK  146  A    between atoms: _371  and  _373
REMARK  147  A    between atoms: _384  and  _387
REMARK  148  A    between atoms: _387  and  _388
REMARK  149  A    between atoms: _388  and  _389
REMARK  150  A    between atoms: _394  and  _397
REMARK  151  A    between atoms: _397  and  _398
REMARK  152  A    between atoms: _398  and  _399
REMARK  153  A    between atoms: _408  and  _409
REMARK  154  A    between atoms: _417  and  _419
REMARK  155  A    between atoms: _419  and  _420
REMARK  156  A    between atoms: _419  and  _422
REMARK  157  A    between atoms: _422  and  _423
REMARK  158  A    between atoms: _426  and  _428
REMARK  159  A    between atoms: _428  and  _429
REMARK  160  A    between atoms: _428  and  _431
REMARK  161  A    between atoms: _431  and  _432
REMARK  162  A    between atoms: _437  and  _438
REMARK  163  A    between atoms: _440  and  _442
REMARK  164  A    between atoms: _442  and  _443
REMARK  165  A    between atoms: _442  and  _445
REMARK  166  A    between atoms: _445  and  _446
REMARK  167  A    between atoms: _452  and  _454
REMARK  168  A    between atoms: _454  and  _455
REMARK  169  A    between atoms: _454  and  _457
REMARK  170  A    between atoms: _457  and  _458
REMARK  171  A    between atoms: _463  and  _464
REMARK  172  A    between atoms: _466  and  _468
REMARK  173  A    between atoms: _468  and  _469
REMARK  174  A    between atoms: _468  and  _471
REMARK  175  A    between atoms: _471  and  _472
REMARK  176  A    between atoms: _472  and  _473
REMARK  177  A    between atoms: _473  and  _474
REMARK  178  A    between atoms: _483  and  _485
REMARK  179  A    between atoms: _485  and  _486
REMARK  180  A    between atoms: _485  and  _488
REMARK  181  A    between atoms: _488  and  _489
REMARK  182  A    between atoms: _489  and  _490
REMARK  183  A    between atoms: _493  and  _495
REMARK  184  A    between atoms: _495  and  _496
REMARK  185  A    between atoms: _498  and  _500
REMARK  186  A    between atoms: _500  and  _501
REMARK  187  A    between atoms: _500  and  _503
REMARK  188  A    between atoms: _503  and  _504
REMARK  189  A    between atoms: _510  and  _511
REMARK  190  A    between atoms: _516  and  _518
REMARK  191  A    between atoms: _518  and  _519
REMARK  192  A    between atoms: _521  and  _523
REMARK  193  A    between atoms: _523  and  _524
REMARK  194  A    between atoms: _523  and  _526
REMARK  195  A    between atoms: _526  and  _527
REMARK  196  A    between atoms: _533  and  _535
REMARK  197  A    between atoms: _535  and  _536
REMARK  198  A    between atoms: _535  and  _538
REMARK  199  A    between atoms: _538  and  _539
REMARK  200  A    between atoms: _544  and  _546
REMARK  201  A    between atoms: _546  and  _547
REMARK  202  A    between atoms: _546  and  _549
REMARK  203  A    between atoms: _549  and  _550
REMARK  204  A    between atoms: _550  and  _551
REMARK  205  A    between atoms: _551  and  _552
REMARK  206  A    between atoms: _552  and  ZN_793
REMARK  207  A    between atoms: _554  and  _556
REMARK  208  A    between atoms: _556  and  _557
REMARK  209  A    between atoms: _560  and  _562
REMARK  210  A    between atoms: _562  and  _563
REMARK  211  A    between atoms: _562  and  _565
REMARK  212  A    between atoms: _565  and  _566
REMARK  213  A    between atoms: _569  and  _571
REMARK  214  A    between atoms: _571  and  _572
REMARK  215  A    between atoms: _575  and  _577
REMARK  216  A    between atoms: _577  and  _578
REMARK  217  A    between atoms: _577  and  _580
REMARK  218  A    between atoms: _580  and  _581
REMARK  219  A    between atoms: _584  and  _586
REMARK  220  A    between atoms: _586  and  _587
REMARK  221  A    between atoms: _586  and  _589
REMARK  222  A    between atoms: _589  and  _590
REMARK  223  A    between atoms: _590  and  _591
REMARK  224  A    between atoms: _591  and  _592
REMARK  225  A    between atoms: _592  and  _593
REMARK  226  A    between atoms: _597  and  _599
REMARK  227  A    between atoms: _599  and  _600
REMARK  228  A    between atoms: _599  and  _602
REMARK  229  A    between atoms: _602  and  _603
REMARK  230  A    between atoms: _609  and  _611
REMARK  231  A    between atoms: _611  and  _612
REMARK  232  A    between atoms: _611  and  _614
REMARK  233  A    between atoms: _614  and  _615
REMARK  234  A    between atoms: _621  and  _623
REMARK  235  A    between atoms: _623  and  _624
REMARK  236  A    between atoms: _623  and  _626
REMARK  237  A    between atoms: _626  and  _627
REMARK  238  A    between atoms: _629  and  _631
REMARK  239  A    between atoms: _631  and  _632
REMARK  240  A    between atoms: _631  and  _634
REMARK  241  A    between atoms: _637  and  _639
REMARK  242  A    between atoms: _639  and  _640
REMARK  243  A    between atoms: _639  and  _642
REMARK  244  A    between atoms: _642  and  _643
REMARK  245  A    between atoms: _643  and  _644
REMARK  246  A    between atoms: _644  and  _645
REMARK  247  A    between atoms: _645  and  _646
REMARK  248  A    between atoms: _650  and  _652
REMARK  249  A    between atoms: _652  and  _653
REMARK  250  A    between atoms: _652  and  _655
REMARK  251  A    between atoms: _655  and  _656
REMARK  252  A    between atoms: _662  and  _664
REMARK  253  A    between atoms: _664  and  _665
REMARK  254  A    between atoms: _664  and  _667
REMARK  255  A    between atoms: _667  and  _668
REMARK  256  A    between atoms: _673  and  _675
REMARK  257  A    between atoms: _675  and  _676
REMARK  258  A    between atoms: _675  and  _678
REMARK  259  A    between atoms: _678  and  _679
REMARK  260  A    between atoms: _681  and  _683
REMARK  261  A    between atoms: _683  and  _684
REMARK  262  A    between atoms: _683  and  _686
REMARK  263  A    between atoms: _686  and  _687
REMARK  264  A    between atoms: _689  and  _691
REMARK  265  A    between atoms: _691  and  _692
REMARK  266  A    between atoms: _691  and  _694
REMARK  267  A    between atoms: _698  and  _699
REMARK  268  A    between atoms: _704  and  _706
REMARK  269  A    between atoms: _706  and  _707
REMARK  270  A    between atoms: _706  and  _709
REMARK  271  A    between atoms: _709  and  _710
REMARK  272  A    between atoms: _715  and  _716
REMARK  273  A    between atoms: _718  and  _720
REMARK  274  A    between atoms: _720  and  _721
REMARK  275  A    between atoms: _720  and  _723
REMARK  276  A    between atoms: _723  and  _724
REMARK  277  A    between atoms: _724  and  _725
REMARK  278  A    between atoms: _725  and  _726
REMARK  279  A    between atoms: _735  and  _737
REMARK  280  A    between atoms: _737  and  _738
REMARK  281  A    between atoms: _737  and  _740
REMARK  282  A    between atoms: _740  and  _741
REMARK  283  A    between atoms: _746  and  _747
REMARK  284  A    between atoms: _749  and  _751
REMARK  285  A    between atoms: _751  and  _752
REMARK  286  A    between atoms: _751  and  _754
REMARK  287  A    between atoms: _754  and  _755
REMARK  288  A    between atoms: _761  and  _763
REMARK  289  A    between atoms: _763  and  _764
REMARK  290  A    between atoms: _763  and  _766
REMARK  291  A    between atoms: _766  and  _767
REMARK  292  A    between atoms: _769  and  _771
REMARK  293  A    between atoms: _771  and  _772
REMARK  294  A    between atoms: _771  and  _774
REMARK  295  A    between atoms: _774  and  _775
REMARK  296  A    between atoms: _781  and  _783
REMARK  297  A    between atoms: _783  and  _784
REMARK  298  A    between atoms: _783  and  _786
REMARK  299  A    between atoms: _786  and  _787
REMARK  300  A    between atoms: _787  and  _788
REMARK                            x       y       z     vdW  Elec       q    Type
REMARK                         _______ _______ _______ _____ _____    ______ ____
ROOT
ATOM      1  O   HOH     1      10.882 -16.111 -22.330  0.00  0.00    +0.000 OA
ENDROOT
TORSDOF 0
REMARK  Name = ../refined-set-2016/4ca5/4ca5_pocket.pdb
REMARK  300 active torsions:
REMARK  status: ('A' for Active; 'I' for Inactive)
REMARK    1  A    between atoms: _1  and  _3
REMARK    2  A    between atoms: _3  and  _4
REMARK    3  A    between atoms: _3  and  _6
REMARK    4  A    between atoms: _6  and  _7
REMARK    5  A    between atoms: _12  and  _14
REMARK    6  A    between atoms: _14  and  _15
REMARK    7  A    between atoms: _14  and  _17
REMARK    8  A    between atoms: _17  and  _18
REMARK    9  A    between atoms: _23  and  _25
REMARK   10  A    between atoms: _25  and  _26
REMARK   11  A    between atoms: _25  and  _28
REMARK   12  A    between atoms: _28  and  _29
REMARK   13  A    between atoms: _29  and  _30
REMARK   14  A    between atoms: _33  and  _35
REMARK   15  A    between atoms: _35  and  _36
REMARK   16  A    between atoms: _35  and  _38
REMARK   17  A    between atoms: _38  and  _39
REMARK   18  A    between atoms: _44  and  _45
REMARK   19  A    between atoms: _47  and  _49
REMARK   20  A    between atoms: _49  and  _50
REMARK   21  A    between atoms: _49  and  _52
REMARK   22  A    between atoms: _52  and  _53
REMARK   23  A    between atoms: _53  and  _54
REMARK   24  A    between atoms: _57  and  _59
REMARK   25  A    between atoms: _59  and  _60
REMARK   26  A    between atoms: _59  and  _62
REMARK   27  A    between atoms: _62  and  _63
REMARK   28  A    between atoms: _66  and  _68
REMARK   29  A    between atoms: _68  and  _69
REMARK   30  A    between atoms: _71  and  _73
REMARK   31  A    between atoms: _73  and  _74
REMARK   32  A    between atoms: _73  and  _76
REMARK   33  A    between atoms: _76  and  _77
REMARK   34  A    between atoms: _82  and  _84
REMARK   35  A    between atoms: _84  and  _85
REMARK   36  A    between atoms: _84  and  _87
REMARK   37  A    between atoms: _87  and  _88
REMARK   38  A    between atoms: _88  and  _89
REMARK   39  A    between atoms: _91  and  _93
REMARK   40  A    between atoms: _93  and  _94
REMARK   41  A    between atoms: _93  and  _96
REMARK   42  A    between atoms: _96  and  _97
REMARK   43  A    between atoms: _107  and  _109
REMARK   44  A    between atoms: _109  and  _110
REMARK   45  A    between atoms: _109  and  _112
REMARK   46  A    between atoms: _112  and  _113
REMARK   47  A    between atoms: _113  and  _114
REMARK   48  A    between atoms: _119  and  _121
REMARK   49  A    between atoms: _121  and  _122
REMARK   50  A    between atoms: _121  and  _124
REMARK   51  A    between atoms: _124  and  _125
REMARK   52  A    between atoms: _128  and  _130
REMARK   53  A    between atoms: _130  and  _131
REMARK   54  A    between atoms: _130  and  _133
REMARK   55  A    between atoms: _133  and  _134
REMARK   56  A    between atoms: _144  and  _146
REMARK   57  A    between atoms: _146  and  _147
REMARK   58  A    between atoms: _146  and  _149
REMARK   59  A    between atoms: _149  and  _150
REMARK   60  A    between atoms: _152  and  _154
REMARK   61  A    between atoms: _154  and  _155
REMARK   62  A    between atoms: _154  and  _157
REMARK   63  A    between atoms: _157  and  _158
REMARK   64  A    between atoms: _163  and  _165
REMARK   65  A    between atoms: _165  and  _166
REMARK   66  A    between atoms: _165  and  _168
REMARK   67  A    between atoms: _171  and  _173
REMARK   68  A    between atoms: _173  and  _174
REMARK   69  A    between atoms: _173  and  _176
REMARK   70  A    between atoms: _178  and  _180
REMARK   71  A    between atoms: _180  and  _181
REMARK   72  A    between atoms: _180  and  _183
REMARK   73  A    between atoms: _183  and  _184
REMARK   74  A    between atoms: _189  and  _191
REMARK   75  A    between atoms: _191  and  _192
REMARK   76  A    between atoms: _195  and  _197
REMARK   77  A    between atoms: _197  and  _198
REMARK   78  A    between atoms: _197  and  _200
REMARK   79  A    between atoms: _200  and  _201
REMARK   80  A    between atoms: _203  and  _205
REMARK   81  A    between atoms: _205  and  _206
REMARK   82  A    between atoms: _209  and  _211
REMARK   83  A    between atoms: _211  and  _212
REMARK   84  A    between atoms: _211  and  _214
REMARK   85  A    between atoms: _214  and  _215
REMARK   86  A    between atoms: _225  and  _227
REMARK   87  A    between atoms: _227  and  _228
REMARK   88  A    between atoms: _227  and  _230
REMARK   89  A    between atoms: _230  and  _231
REMARK   90  A    between atoms: _234  and  _236
REMARK   91  A    between atoms: _236  and  _237
REMARK   92  A    between atoms: _236  and  _239
REMARK   93  A    between atoms: _239  and  _240
REMARK   94  A    between atoms: _245  and  _246
REMARK   95  A    between atoms: _248  and  _250
REMARK   96  A    between atoms: _250  and  _251
REMARK   97  A    between atoms: _250  and  _253
REMARK   98  A    between atoms: _253  and  _254
REMARK   99  A    between atoms: _254  and  _255
REMARK  100  A    between atoms: _255  and  _256
REMARK  101  A    between atoms: _265  and  _267
REMARK  102  A    between atoms: _267  and  _268
REMARK  103  A    between atoms: _267  and  _270
REMARK  104  A    between atoms: _270  and  _271
REMARK  105  A    between atoms: _274  and  _276
REMARK  106  A    between atoms: _276  and  _277
REMARK  107  A    between atoms: _276  and  _279
REMARK  108  A    between atoms: _279  and  _280
REMARK  109  A    between atoms: _280  and  _281
REMARK  110  A    between atoms: _281  and  _282
REMARK  111  A    between atoms: _282  and  _283
REMARK  112  A    between atoms: _287  and  _289
REMARK  113  A    between atoms: _289  and  _290
REMARK  114  A    between atoms: _289  and  _292
REMARK  115  A    between atoms: _292  and  _293
REMARK  116  A    between atoms: _293  and  _294
REMARK  117  A    between atoms: _299  and  _301
REMARK  118  A    between atoms: _301  and  _302
REMARK  119  A    between atoms: _301  and  _304
REMARK  120  A    between atoms: _304  and  _305
REMARK  121  A    between atoms: _310  and  _312
REMARK  122  A    between atoms: _312  and  _313
REMARK  123  A    between atoms: _312  and  _315
REMARK  124  A    between atoms: _315  and  _316
REMARK  125  A    between atoms: _319  and  _321
REMARK  126  A    between atoms: _321  and  _322
REMARK  127  A    between atoms: _321  and  _324
REMARK  128  A    between atoms: _324  and  _325
REMARK  129  A    between atoms: _325  and  _326
REMARK  130  A    between atoms: _329  and  _331
REMARK  131  A    between atoms: _331  and  _332
REMARK  132  A    between atoms: _331  and  _334
REMARK  133  A    between atoms: _334  and  _335
REMARK  134  A    between atoms: _338  and  _340
REMARK  135  A    between atoms: _340  and  _341
REMARK  136  A    between atoms: _340  and  _343
REMARK  137  A    between atoms: _346  and  _348
REMARK  138  A    between atoms: _348  and  _349
REMARK  139  A    between atoms: _348  and  _351
REMARK  140  A    between atoms: _354  and  _356
REMARK  141  A    between atoms: _356  and  _357
REMARK  142  A    between atoms: _360  and  _362
REMARK  143  A    between atoms: _362  and  _363
REMARK  144  A    between atoms: _362  and  _365
REMARK  145  A    between atoms: _365  and  _366
REMARK  146  A    between atoms: _371  and  _373
REMARK  147  A    between atoms: _384  and  _387
REMARK  148  A    between atoms: _387  and  _388
REMARK  149  A    between atoms: _388  and  _389
REMARK  150  A    between atoms: _394  and  _397
REMARK  151  A    between atoms: _397  and  _398
REMARK  152  A    between atoms: _398  and  _399
REMARK  153  A    between atoms: _408  and  _409
REMARK  154  A    between atoms: _417  and  _419
REMARK  155  A    between atoms: _419  and  _420
REMARK  156  A    between atoms: _419  and  _422
REMARK  157  A    between atoms: _422  and  _423
REMARK  158  A    between atoms: _426  and  _428
REMARK  159  A    between atoms: _428  and  _429
REMARK  160  A    between atoms: _428  and  _431
REMARK  161  A    between atoms: _431  and  _432
REMARK  162  A    between atoms: _437  and  _438
REMARK  163  A    between atoms: _440  and  _442
REMARK  164  A    between atoms: _442  and  _443
REMARK  165  A    between atoms: _442  and  _445
REMARK  166  A    between atoms: _445  and  _446
REMARK  167  A    between atoms: _452  and  _454
REMARK  168  A    between atoms: _454  and  _455
REMARK  169  A    between atoms: _454  and  _457
REMARK  170  A    between atoms: _457  and  _458
REMARK  171  A    between atoms: _463  and  _464
REMARK  172  A    between atoms: _466  and  _468
REMARK  173  A    between atoms: _468  and  _469
REMARK  174  A    between atoms: _468  and  _471
REMARK  175  A    between atoms: _471  and  _472
REMARK  176  A    between atoms: _472  and  _473
REMARK  177  A    between atoms: _473  and  _474
REMARK  178  A    between atoms: _483  and  _485
REMARK  179  A    between atoms: _485  and  _486
REMARK  180  A    between atoms: _485  and  _488
REMARK  181  A    between atoms: _488  and  _489
REMARK  182  A    between atoms: _489  and  _490
REMARK  183  A    between atoms: _493  and  _495
REMARK  184  A    between atoms: _495  and  _496
REMARK  185  A    between atoms: _498  and  _500
REMARK  186  A    between atoms: _500  and  _501
REMARK  187  A    between atoms: _500  and  _503
REMARK  188  A    between atoms: _503  and  _504
REMARK  189  A    between atoms: _510  and  _511
REMARK  190  A    between atoms: _516  and  _518
REMARK  191  A    between atoms: _518  and  _519
REMARK  192  A    between atoms: _521  and  _523
REMARK  193  A    between atoms: _523  and  _524
REMARK  194  A    between atoms: _523  and  _526
REMARK  195  A    between atoms: _526  and  _527
REMARK  196  A    between atoms: _533  and  _535
REMARK  197  A    between atoms: _535  and  _536
REMARK  198  A    between atoms: _535  and  _538
REMARK  199  A    between atoms: _538  and  _539
REMARK  200  A    between atoms: _544  and  _546
REMARK  201  A    between atoms: _546  and  _547
REMARK  202  A    between atoms: _546  and  _549
REMARK  203  A    between atoms: _549  and  _550
REMARK  204  A    between atoms: _550  and  _551
REMARK  205  A    between atoms: _551  and  _552
REMARK  206  A    between atoms: _552  and  ZN_793
REMARK  207  A    between atoms: _554  and  _556
REMARK  208  A    between atoms: _556  and  _557
REMARK  209  A    between atoms: _560  and  _562
REMARK  210  A    between atoms: _562  and  _563
REMARK  211  A    between atoms: _562  and  _565
REMARK  212  A    between atoms: _565  and  _566
REMARK  213  A    between atoms: _569  and  _571
REMARK  214  A    between atoms: _571  and  _572
REMARK  215  A    between atoms: _575  and  _577
REMARK  216  A    between atoms: _577  and  _578
REMARK  217  A    between atoms: _577  and  _580
REMARK  218  A    between atoms: _580  and  _581
REMARK  219  A    between atoms: _584  and  _586
REMARK  220  A    between atoms: _586  and  _587
REMARK  221  A    between atoms: _586  and  _589
REMARK  222  A    between atoms: _589  and  _590
REMARK  223  A    between atoms: _590  and  _591
REMARK  224  A    between atoms: _591  and  _592
REMARK  225  A    between atoms: _592  and  _593
REMARK  226  A    between atoms: _597  and  _599
REMARK  227  A    between atoms: _599  and  _600
REMARK  228  A    between atoms: _599  and  _602
REMARK  229  A    between atoms: _602  and  _603
REMARK  230  A    between atoms: _609  and  _611
REMARK  231  A    between atoms: _611  and  _612
REMARK  232  A    between atoms: _611  and  _614
REMARK  233  A    between atoms: _614  and  _615
REMARK  234  A    between atoms: _621  and  _623
REMARK  235  A    between atoms: _623  and  _624
REMARK  236  A    between atoms: _623  and  _626
REMARK  237  A    between atoms: _626  and  _627
REMARK  238  A    between atoms: _629  and  _631
REMARK  239  A    between atoms: _631  and  _632
REMARK  240  A    between atoms: _631  and  _634
REMARK  241  A    between atoms: _637  and  _639
REMARK  242  A    between atoms: _639  and  _640
REMARK  243  A    between atoms: _639  and  _642
REMARK  244  A    between atoms: _642  and  _643
REMARK  245  A    between atoms: _643  and  _644
REMARK  246  A    between atoms: _644  and  _645
REMARK  247  A    between atoms: _645  and  _646
REMARK  248  A    between atoms: _650  and  _652
REMARK  249  A    between atoms: _652  and  _653
REMARK  250  A    between atoms: _652  and  _655
REMARK  251  A    between atoms: _655  and  _656
REMARK  252  A    between atoms: _662  and  _664
REMARK  253  A    between atoms: _664  and  _665
REMARK  254  A    between atoms: _664  and  _667
REMARK  255  A    between atoms: _667  and  _668
REMARK  256  A    between atoms: _673  and  _675
REMARK  257  A    between atoms: _675  and  _676
REMARK  258  A    between atoms: _675  and  _678
REMARK  259  A    between atoms: _678  and  _679
REMARK  260  A    between atoms: _681  and  _683
REMARK  261  A    between atoms: _683  and  _684
REMARK  262  A    between atoms: _683  and  _686
REMARK  263  A    between atoms: _686  and  _687
REMARK  264  A    between atoms: _689  and  _691
REMARK  265  A    between atoms: _691  and  _692
REMARK  266  A    between atoms: _691  and  _694
REMARK  267  A    between atoms: _698  and  _699
REMARK  268  A    between atoms: _704  and  _706
REMARK  269  A    between atoms: _706  and  _707
REMARK  270  A    between atoms: _706  and  _709
REMARK  271  A    between atoms: _709  and  _710
REMARK  272  A    between atoms: _715  and  _716
REMARK  273  A    between atoms: _718  and  _720
REMARK  274  A    between atoms: _720  and  _721
REMARK  275  A    between atoms: _720  and  _723
REMARK  276  A    between atoms: _723  and  _724
REMARK  277  A    between atoms: _724  and  _725
REMARK  278  A    between atoms: _725  and  _726
REMARK  279  A    between atoms: _735  and  _737
REMARK  280  A    between atoms: _737  and  _738
REMARK  281  A    between atoms: _737  and  _740
REMARK  282  A    between atoms: _740  and  _741
REMARK  283  A    between atoms: _746  and  _747
REMARK  284  A    between atoms: _749  and  _751
REMARK  285  A    between atoms: _751  and  _752
REMARK  286  A    between atoms: _751  and  _754
REMARK  287  A    between atoms: _754  and  _755
REMARK  288  A    between atoms: _761  and  _763
REMARK  289  A    between atoms: _763  and  _764
REMARK  290  A    between atoms: _763  and  _766
REMARK  291  A    between atoms: _766  and  _767
REMARK  292  A    between atoms: _769  and  _771
REMARK  293  A    between atoms: _771  and  _772
REMARK  294  A    between atoms: _771  and  _774
REMARK  295  A    between atoms: _774  and  _775
REMARK  296  A    between atoms: _781  and  _783
REMARK  297  A    between atoms: _783  and  _784
REMARK  298  A    between atoms: _783  and  _786
REMARK  299  A    between atoms: _786  and  _787
REMARK  300  A    between atoms: _787  and  _788
REMARK                            x       y       z     vdW  Elec       q    Type
REMARK                         _______ _______ _______ _____ _____    ______ ____
ROOT
ATOM      1  O   HOH     1      13.815 -13.907 -20.048  0.00  0.00    +0.000 OA
ENDROOT
TORSDOF 0
REMARK  Name = ../refined-set-2016/4ca5/4ca5_pocket.pdb
REMARK  300 active torsions:
REMARK  status: ('A' for Active; 'I' for Inactive)
REMARK    1  A    between atoms: _1  and  _3
REMARK    2  A    between atoms: _3  and  _4
REMARK    3  A    between atoms: _3  and  _6
REMARK    4  A    between atoms: _6  and  _7
REMARK    5  A    between atoms: _12  and  _14
REMARK    6  A    between atoms: _14  and  _15
REMARK    7  A    between atoms: _14  and  _17
REMARK    8  A    between atoms: _17  and  _18
REMARK    9  A    between atoms: _23  and  _25
REMARK   10  A    between atoms: _25  and  _26
REMARK   11  A    between atoms: _25  and  _28
REMARK   12  A    between atoms: _28  and  _29
REMARK   13  A    between atoms: _29  and  _30
REMARK   14  A    between atoms: _33  and  _35
REMARK   15  A    between atoms: _35  and  _36
REMARK   16  A    between atoms: _35  and  _38
REMARK   17  A    between atoms: _38  and  _39
REMARK   18  A    between atoms: _44  and  _45
REMARK   19  A    between atoms: _47  and  _49
REMARK   20  A    between atoms: _49  and  _50
REMARK   21  A    between atoms: _49  and  _52
REMARK   22  A    between atoms: _52  and  _53
REMARK   23  A    between atoms: _53  and  _54
REMARK   24  A    between atoms: _57  and  _59
REMARK   25  A    between atoms: _59  and  _60
REMARK   26  A    between atoms: _59  and  _62
REMARK   27  A    between atoms: _62  and  _63
REMARK   28  A    between atoms: _66  and  _68
REMARK   29  A    between atoms: _68  and  _69
REMARK   30  A    between atoms: _71  and  _73
REMARK   31  A    between atoms: _73  and  _74
REMARK   32  A    between atoms: _73  and  _76
REMARK   33  A    between atoms: _76  and  _77
REMARK   34  A    between atoms: _82  and  _84
REMARK   35  A    between atoms: _84  and  _85
REMARK   36  A    between atoms: _84  and  _87
REMARK   37  A    between atoms: _87  and  _88
REMARK   38  A    between atoms: _88  and  _89
REMARK   39  A    between atoms: _91  and  _93
REMARK   40  A    between atoms: _93  and  _94
REMARK   41  A    between atoms: _93  and  _96
REMARK   42  A    between atoms: _96  and  _97
REMARK   43  A    between atoms: _107  and  _109
REMARK   44  A    between atoms: _109  and  _110
REMARK   45  A    between atoms: _109  and  _112
REMARK   46  A    between atoms: _112  and  _113
REMARK   47  A    between atoms: _113  and  _114
REMARK   48  A    between atoms: _119  and  _121
REMARK   49  A    between atoms: _121  and  _122
REMARK   50  A    between atoms: _121  and  _124
REMARK   51  A    between atoms: _124  and  _125
REMARK   52  A    between atoms: _128  and  _130
REMARK   53  A    between atoms: _130  and  _131
REMARK   54  A    between atoms: _130  and  _133
REMARK   55  A    between atoms: _133  and  _134
REMARK   56  A    between atoms: _144  and  _146
REMARK   57  A    between atoms: _146  and  _147
REMARK   58  A    between atoms: _146  and  _149
REMARK   59  A    between atoms: _149  and  _150
REMARK   60  A    between atoms: _152  and  _154
REMARK   61  A    between atoms: _154  and  _155
REMARK   62  A    between atoms: _154  and  _157
REMARK   63  A    between atoms: _157  and  _158
REMARK   64  A    between atoms: _163  and  _165
REMARK   65  A    between atoms: _165  and  _166
REMARK   66  A    between atoms: _165  and  _168
REMARK   67  A    between atoms: _171  and  _173
REMARK   68  A    between atoms: _173  and  _174
REMARK   69  A    between atoms: _173  and  _176
REMARK   70  A    between atoms: _178  and  _180
REMARK   71  A    between atoms: _180  and  _181
REMARK   72  A    between atoms: _180  and  _183
REMARK   73  A    between atoms: _183  and  _184
REMARK   74  A    between atoms: _189  and  _191
REMARK   75  A    between atoms: _191  and  _192
REMARK   76  A    between atoms: _195  and  _197
REMARK   77  A    between atoms: _197  and  _198
REMARK   78  A    between atoms: _197  and  _200
REMARK   79  A    between atoms: _200  and  _201
REMARK   80  A    between atoms: _203  and  _205
REMARK   81  A    between atoms: _205  and  _206
REMARK   82  A    between atoms: _209  and  _211
REMARK   83  A    between atoms: _211  and  _212
REMARK   84  A    between atoms: _211  and  _214
REMARK   85  A    between atoms: _214  and  _215
REMARK   86  A    between atoms: _225  and  _227
REMARK   87  A    between atoms: _227  and  _228
REMARK   88  A    between atoms: _227  and  _230
REMARK   89  A    between atoms: _230  and  _231
REMARK   90  A    between atoms: _234  and  _236
REMARK   91  A    between atoms: _236  and  _237
REMARK   92  A    between atoms: _236  and  _239
REMARK   93  A    between atoms: _239  and  _240
REMARK   94  A    between atoms: _245  and  _246
REMARK   95  A    between atoms: _248  and  _250
REMARK   96  A    between atoms: _250  and  _251
REMARK   97  A    between atoms: _250  and  _253
REMARK   98  A    between atoms: _253  and  _254
REMARK   99  A    between atoms: _254  and  _255
REMARK  100  A    between atoms: _255  and  _256
REMARK  101  A    between atoms: _265  and  _267
REMARK  102  A    between atoms: _267  and  _268
REMARK  103  A    between atoms: _267  and  _270
REMARK  104  A    between atoms: _270  and  _271
REMARK  105  A    between atoms: _274  and  _276
REMARK  106  A    between atoms: _276  and  _277
REMARK  107  A    between atoms: _276  and  _279
REMARK  108  A    between atoms: _279  and  _280
REMARK  109  A    between atoms: _280  and  _281
REMARK  110  A    between atoms: _281  and  _282
REMARK  111  A    between atoms: _282  and  _283
REMARK  112  A    between atoms: _287  and  _289
REMARK  113  A    between atoms: _289  and  _290
REMARK  114  A    between atoms: _289  and  _292
REMARK  115  A    between atoms: _292  and  _293
REMARK  116  A    between atoms: _293  and  _294
REMARK  117  A    between atoms: _299  and  _301
REMARK  118  A    between atoms: _301  and  _302
REMARK  119  A    between atoms: _301  and  _304
REMARK  120  A    between atoms: _304  and  _305
REMARK  121  A    between atoms: _310  and  _312
REMARK  122  A    between atoms: _312  and  _313
REMARK  123  A    between atoms: _312  and  _315
REMARK  124  A    between atoms: _315  and  _316
REMARK  125  A    between atoms: _319  and  _321
REMARK  126  A    between atoms: _321  and  _322
REMARK  127  A    between atoms: _321  and  _324
REMARK  128  A    between atoms: _324  and  _325
REMARK  129  A    between atoms: _325  and  _326
REMARK  130  A    between atoms: _329  and  _331
REMARK  131  A    between atoms: _331  and  _332
REMARK  132  A    between atoms: _331  and  _334
REMARK  133  A    between atoms: _334  and  _335
REMARK  134  A    between atoms: _338  and  _340
REMARK  135  A    between atoms: _340  and  _341
REMARK  136  A    between atoms: _340  and  _343
REMARK  137  A    between atoms: _346  and  _348
REMARK  138  A    between atoms: _348  and  _349
REMARK  139  A    between atoms: _348  and  _351
REMARK  140  A    between atoms: _354  and  _356
REMARK  141  A    between atoms: _356  and  _357
REMARK  142  A    between atoms: _360  and  _362
REMARK  143  A    between atoms: _362  and  _363
REMARK  144  A    between atoms: _362  and  _365
REMARK  145  A    between atoms: _365  and  _366
REMARK  146  A    between atoms: _371  and  _373
REMARK  147  A    between atoms: _384  and  _387
REMARK  148  A    between atoms: _387  and  _388
REMARK  149  A    between atoms: _388  and  _389
REMARK  150  A    between atoms: _394  and  _397
REMARK  151  A    between atoms: _397  and  _398
REMARK  152  A    between atoms: _398  and  _399
REMARK  153  A    between atoms: _408  and  _409
REMARK  154  A    between atoms: _417  and  _419
REMARK  155  A    between atoms: _419  and  _420
REMARK  156  A    between atoms: _419  and  _422
REMARK  157  A    between atoms: _422  and  _423
REMARK  158  A    between atoms: _426  and  _428
REMARK  159  A    between atoms: _428  and  _429
REMARK  160  A    between atoms: _428  and  _431
REMARK  161  A    between atoms: _431  and  _432
REMARK  162  A    between atoms: _437  and  _438
REMARK  163  A    between atoms: _440  and  _442
REMARK  164  A    between atoms: _442  and  _443
REMARK  165  A    between atoms: _442  and  _445
REMARK  166  A    between atoms: _445  and  _446
REMARK  167  A    between atoms: _452  and  _454
REMARK  168  A    between atoms: _454  and  _455
REMARK  169  A    between atoms: _454  and  _457
REMARK  170  A    between atoms: _457  and  _458
REMARK  171  A    between atoms: _463  and  _464
REMARK  172  A    between atoms: _466  and  _468
REMARK  173  A    between atoms: _468  and  _469
REMARK  174  A    between atoms: _468  and  _471
REMARK  175  A    between atoms: _471  and  _472
REMARK  176  A    between atoms: _472  and  _473
REMARK  177  A    between atoms: _473  and  _474
REMARK  178  A    between atoms: _483  and  _485
REMARK  179  A    between atoms: _485  and  _486
REMARK  180  A    between atoms: _485  and  _488
REMARK  181  A    between atoms: _488  and  _489
REMARK  182  A    between atoms: _489  and  _490
REMARK  183  A    between atoms: _493  and  _495
REMARK  184  A    between atoms: _495  and  _496
REMARK  185  A    between atoms: _498  and  _500
REMARK  186  A    between atoms: _500  and  _501
REMARK  187  A    between atoms: _500  and  _503
REMARK  188  A    between atoms: _503  and  _504
REMARK  189  A    between atoms: _510  and  _511
REMARK  190  A    between atoms: _516  and  _518
REMARK  191  A    between atoms: _518  and  _519
REMARK  192  A    between atoms: _521  and  _523
REMARK  193  A    between atoms: _523  and  _524
REMARK  194  A    between atoms: _523  and  _526
REMARK  195  A    between atoms: _526  and  _527
REMARK  196  A    between atoms: _533  and  _535
REMARK  197  A    between atoms: _535  and  _536
REMARK  198  A    between atoms: _535  and  _538
REMARK  199  A    between atoms: _538  and  _539
REMARK  200  A    between atoms: _544  and  _546
REMARK  201  A    between atoms: _546  and  _547
REMARK  202  A    between atoms: _546  and  _549
REMARK  203  A    between atoms: _549  and  _550
REMARK  204  A    between atoms: _550  and  _551
REMARK  205  A    between atoms: _551  and  _552
REMARK  206  A    between atoms: _552  and  ZN_793
REMARK  207  A    between atoms: _554  and  _556
REMARK  208  A    between atoms: _556  and  _557
REMARK  209  A    between atoms: _560  and  _562
REMARK  210  A    between atoms: _562  and  _563
REMARK  211  A    between atoms: _562  and  _565
REMARK  212  A    between atoms: _565  and  _566
REMARK  213  A    between atoms: _569  and  _571
REMARK  214  A    between atoms: _571  and  _572
REMARK  215  A    between atoms: _575  and  _577
REMARK  216  A    between atoms: _577  and  _578
REMARK  217  A    between atoms: _577  and  _580
REMARK  218  A    between atoms: _580  and  _581
REMARK  219  A    between atoms: _584  and  _586
REMARK  220  A    between atoms: _586  and  _587
REMARK  221  A    between atoms: _586  and  _589
REMARK  222  A    between atoms: _589  and  _590
REMARK  223  A    between atoms: _590  and  _591
REMARK  224  A    between atoms: _591  and  _592
REMARK  225  A    between atoms: _592  and  _593
REMARK  226  A    between atoms: _597  and  _599
REMARK  227  A    between atoms: _599  and  _600
REMARK  228  A    between atoms: _599  and  _602
REMARK  229  A    between atoms: _602  and  _603
REMARK  230  A    between atoms: _609  and  _611
REMARK  231  A    between atoms: _611  and  _612
REMARK  232  A    between atoms: _611  and  _614
REMARK  233  A    between atoms: _614  and  _615
REMARK  234  A    between atoms: _621  and  _623
REMARK  235  A    between atoms: _623  and  _624
REMARK  236  A    between atoms: _623  and  _626
REMARK  237  A    between atoms: _626  and  _627
REMARK  238  A    between atoms: _629  and  _631
REMARK  239  A    between atoms: _631  and  _632
REMARK  240  A    between atoms: _631  and  _634
REMARK  241  A    between atoms: _637  and  _639
REMARK  242  A    between atoms: _639  and  _640
REMARK  243  A    between atoms: _639  and  _642
REMARK  244  A    between atoms: _642  and  _643
REMARK  245  A    between atoms: _643  and  _644
REMARK  246  A    between atoms: _644  and  _645
REMARK  247  A    between atoms: _645  and  _646
REMARK  248  A    between atoms: _650  and  _652
REMARK  249  A    between atoms: _652  and  _653
REMARK  250  A    between atoms: _652  and  _655
REMARK  251  A    between atoms: _655  and  _656
REMARK  252  A    between atoms: _662  and  _664
REMARK  253  A    between atoms: _664  and  _665
REMARK  254  A    between atoms: _664  and  _667
REMARK  255  A    between atoms: _667  and  _668
REMARK  256  A    between atoms: _673  and  _675
REMARK  257  A    between atoms: _675  and  _676
REMARK  258  A    between atoms: _675  and  _678
REMARK  259  A    between atoms: _678  and  _679
REMARK  260  A    between atoms: _681  and  _683
REMARK  261  A    between atoms: _683  and  _684
REMARK  262  A    between atoms: _683  and  _686
REMARK  263  A    between atoms: _686  and  _687
REMARK  264  A    between atoms: _689  and  _691
REMARK  265  A    between atoms: _691  and  _692
REMARK  266  A    between atoms: _691  and  _694
REMARK  267  A    between atoms: _698  and  _699
REMARK  268  A    between atoms: _704  and  _706
REMARK  269  A    between atoms: _706  and  _707
REMARK  270  A    between atoms: _706  and  _709
REMARK  271  A    between atoms: _709  and  _710
REMARK  272  A    between atoms: _715  and  _716
REMARK  273  A    between atoms: _718  and  _720
REMARK  274  A    between atoms: _720  and  _721
REMARK  275  A    between atoms: _720  and  _723
REMARK  276  A    between atoms: _723  and  _724
REMARK  277  A    between atoms: _724  and  _725
REMARK  278  A    between atoms: _725  and  _726
REMARK  279  A    between atoms: _735  and  _737
REMARK  280  A    between atoms: _737  and  _738
REMARK  281  A    between atoms: _737  and  _740
REMARK  282  A    between atoms: _740  and  _741
REMARK  283  A    between atoms: _746  and  _747
REMARK  284  A    between atoms: _749  and  _751
REMARK  285  A    between atoms: _751  and  _752
REMARK  286  A    between atoms: _751  and  _754
REMARK  287  A    between atoms: _754  and  _755
REMARK  288  A    between atoms: _761  and  _763
REMARK  289  A    between atoms: _763  and  _764
REMARK  290  A    between atoms: _763  and  _766
REMARK  291  A    between atoms: _766  and  _767
REMARK  292  A    between atoms: _769  and  _771
REMARK  293  A    between atoms: _771  and  _772
REMARK  294  A    between atoms: _771  and  _774
REMARK  295  A    between atoms: _774  and  _775
REMARK  296  A    between atoms: _781  and  _783
REMARK  297  A    between atoms: _783  and  _784
REMARK  298  A    between atoms: _783  and  _786
REMARK  299  A    between atoms: _786  and  _787
REMARK  300  A    between atoms: _787  and  _788
REMARK                            x       y       z     vdW  Elec       q    Type
REMARK                         _______ _______ _______ _____ _____    ______ ____
ROOT
ATOM      1  O   HOH     1      13.231 -19.534 -29.161  0.00  0.00    +0.000 OA
ENDROOT
TORSDOF 0
REMARK  Name = ../refined-set-2016/4ca5/4ca5_pocket.pdb
REMARK  300 active torsions:
REMARK  status: ('A' for Active; 'I' for Inactive)
REMARK    1  A    between atoms: _1  and  _3
REMARK    2  A    between atoms: _3  and  _4
REMARK    3  A    between atoms: _3  and  _6
REMARK    4  A    between atoms: _6  and  _7
REMARK    5  A    between atoms: _12  and  _14
REMARK    6  A    between atoms: _14  and  _15
REMARK    7  A    between atoms: _14  and  _17
REMARK    8  A    between atoms: _17  and  _18
REMARK    9  A    between atoms: _23  and  _25
REMARK   10  A    between atoms: _25  and  _26
REMARK   11  A    between atoms: _25  and  _28
REMARK   12  A    between atoms: _28  and  _29
REMARK   13  A    between atoms: _29  and  _30
REMARK   14  A    between atoms: _33  and  _35
REMARK   15  A    between atoms: _35  and  _36
REMARK   16  A    between atoms: _35  and  _38
REMARK   17  A    between atoms: _38  and  _39
REMARK   18  A    between atoms: _44  and  _45
REMARK   19  A    between atoms: _47  and  _49
REMARK   20  A    between atoms: _49  and  _50
REMARK   21  A    between atoms: _49  and  _52
REMARK   22  A    between atoms: _52  and  _53
REMARK   23  A    between atoms: _53  and  _54
REMARK   24  A    between atoms: _57  and  _59
REMARK   25  A    between atoms: _59  and  _60
REMARK   26  A    between atoms: _59  and  _62
REMARK   27  A    between atoms: _62  and  _63
REMARK   28  A    between atoms: _66  and  _68
REMARK   29  A    between atoms: _68  and  _69
REMARK   30  A    between atoms: _71  and  _73
REMARK   31  A    between atoms: _73  and  _74
REMARK   32  A    between atoms: _73  and  _76
REMARK   33  A    between atoms: _76  and  _77
REMARK   34  A    between atoms: _82  and  _84
REMARK   35  A    between atoms: _84  and  _85
REMARK   36  A    between atoms: _84  and  _87
REMARK   37  A    between atoms: _87  and  _88
REMARK   38  A    between atoms: _88  and  _89
REMARK   39  A    between atoms: _91  and  _93
REMARK   40  A    between atoms: _93  and  _94
REMARK   41  A    between atoms: _93  and  _96
REMARK   42  A    between atoms: _96  and  _97
REMARK   43  A    between atoms: _107  and  _109
REMARK   44  A    between atoms: _109  and  _110
REMARK   45  A    between atoms: _109  and  _112
REMARK   46  A    between atoms: _112  and  _113
REMARK   47  A    between atoms: _113  and  _114
REMARK   48  A    between atoms: _119  and  _121
REMARK   49  A    between atoms: _121  and  _122
REMARK   50  A    between atoms: _121  and  _124
REMARK   51  A    between atoms: _124  and  _125
REMARK   52  A    between atoms: _128  and  _130
REMARK   53  A    between atoms: _130  and  _131
REMARK   54  A    between atoms: _130  and  _133
REMARK   55  A    between atoms: _133  and  _134
REMARK   56  A    between atoms: _144  and  _146
REMARK   57  A    between atoms: _146  and  _147
REMARK   58  A    between atoms: _146  and  _149
REMARK   59  A    between atoms: _149  and  _150
REMARK   60  A    between atoms: _152  and  _154
REMARK   61  A    between atoms: _154  and  _155
REMARK   62  A    between atoms: _154  and  _157
REMARK   63  A    between atoms: _157  and  _158
REMARK   64  A    between atoms: _163  and  _165
REMARK   65  A    between atoms: _165  and  _166
REMARK   66  A    between atoms: _165  and  _168
REMARK   67  A    between atoms: _171  and  _173
REMARK   68  A    between atoms: _173  and  _174
REMARK   69  A    between atoms: _173  and  _176
REMARK   70  A    between atoms: _178  and  _180
REMARK   71  A    between atoms: _180  and  _181
REMARK   72  A    between atoms: _180  and  _183
REMARK   73  A    between atoms: _183  and  _184
REMARK   74  A    between atoms: _189  and  _191
REMARK   75  A    between atoms: _191  and  _192
REMARK   76  A    between atoms: _195  and  _197
REMARK   77  A    between atoms: _197  and  _198
REMARK   78  A    between atoms: _197  and  _200
REMARK   79  A    between atoms: _200  and  _201
REMARK   80  A    between atoms: _203  and  _205
REMARK   81  A    between atoms: _205  and  _206
REMARK   82  A    between atoms: _209  and  _211
REMARK   83  A    between atoms: _211  and  _212
REMARK   84  A    between atoms: _211  and  _214
REMARK   85  A    between atoms: _214  and  _215
REMARK   86  A    between atoms: _225  and  _227
REMARK   87  A    between atoms: _227  and  _228
REMARK   88  A    between atoms: _227  and  _230
REMARK   89  A    between atoms: _230  and  _231
REMARK   90  A    between atoms: _234  and  _236
REMARK   91  A    between atoms: _236  and  _237
REMARK   92  A    between atoms: _236  and  _239
REMARK   93  A    between atoms: _239  and  _240
REMARK   94  A    between atoms: _245  and  _246
REMARK   95  A    between atoms: _248  and  _250
REMARK   96  A    between atoms: _250  and  _251
REMARK   97  A    between atoms: _250  and  _253
REMARK   98  A    between atoms: _253  and  _254
REMARK   99  A    between atoms: _254  and  _255
REMARK  100  A    between atoms: _255  and  _256
REMARK  101  A    between atoms: _265  and  _267
REMARK  102  A    between atoms: _267  and  _268
REMARK  103  A    between atoms: _267  and  _270
REMARK  104  A    between atoms: _270  and  _271
REMARK  105  A    between atoms: _274  and  _276
REMARK  106  A    between atoms: _276  and  _277
REMARK  107  A    between atoms: _276  and  _279
REMARK  108  A    between atoms: _279  and  _280
REMARK  109  A    between atoms: _280  and  _281
REMARK  110  A    between atoms: _281  and  _282
REMARK  111  A    between atoms: _282  and  _283
REMARK  112  A    between atoms: _287  and  _289
REMARK  113  A    between atoms: _289  and  _290
REMARK  114  A    between atoms: _289  and  _292
REMARK  115  A    between atoms: _292  and  _293
REMARK  116  A    between atoms: _293  and  _294
REMARK  117  A    between atoms: _299  and  _301
REMARK  118  A    between atoms: _301  and  _302
REMARK  119  A    between atoms: _301  and  _304
REMARK  120  A    between atoms: _304  and  _305
REMARK  121  A    between atoms: _310  and  _312
REMARK  122  A    between atoms: _312  and  _313
REMARK  123  A    between atoms: _312  and  _315
REMARK  124  A    between atoms: _315  and  _316
REMARK  125  A    between atoms: _319  and  _321
REMARK  126  A    between atoms: _321  and  _322
REMARK  127  A    between atoms: _321  and  _324
REMARK  128  A    between atoms: _324  and  _325
REMARK  129  A    between atoms: _325  and  _326
REMARK  130  A    between atoms: _329  and  _331
REMARK  131  A    between atoms: _331  and  _332
REMARK  132  A    between atoms: _331  and  _334
REMARK  133  A    between atoms: _334  and  _335
REMARK  134  A    between atoms: _338  and  _340
REMARK  135  A    between atoms: _340  and  _341
REMARK  136  A    between atoms: _340  and  _343
REMARK  137  A    between atoms: _346  and  _348
REMARK  138  A    between atoms: _348  and  _349
REMARK  139  A    between atoms: _348  and  _351
REMARK  140  A    between atoms: _354  and  _356
REMARK  141  A    between atoms: _356  and  _357
REMARK  142  A    between atoms: _360  and  _362
REMARK  143  A    between atoms: _362  and  _363
REMARK  144  A    between atoms: _362  and  _365
REMARK  145  A    between atoms: _365  and  _366
REMARK  146  A    between atoms: _371  and  _373
REMARK  147  A    between atoms: _384  and  _387
REMARK  148  A    between atoms: _387  and  _388
REMARK  149  A    between atoms: _388  and  _389
REMARK  150  A    between atoms: _394  and  _397
REMARK  151  A    between atoms: _397  and  _398
REMARK  152  A    between atoms: _398  and  _399
REMARK  153  A    between atoms: _408  and  _409
REMARK  154  A    between atoms: _417  and  _419
REMARK  155  A    between atoms: _419  and  _420
REMARK  156  A    between atoms: _419  and  _422
REMARK  157  A    between atoms: _422  and  _423
REMARK  158  A    between atoms: _426  and  _428
REMARK  159  A    between atoms: _428  and  _429
REMARK  160  A    between atoms: _428  and  _431
REMARK  161  A    between atoms: _431  and  _432
REMARK  162  A    between atoms: _437  and  _438
REMARK  163  A    between atoms: _440  and  _442
REMARK  164  A    between atoms: _442  and  _443
REMARK  165  A    between atoms: _442  and  _445
REMARK  166  A    between atoms: _445  and  _446
REMARK  167  A    between atoms: _452  and  _454
REMARK  168  A    between atoms: _454  and  _455
REMARK  169  A    between atoms: _454  and  _457
REMARK  170  A    between atoms: _457  and  _458
REMARK  171  A    between atoms: _463  and  _464
REMARK  172  A    between atoms: _466  and  _468
REMARK  173  A    between atoms: _468  and  _469
REMARK  174  A    between atoms: _468  and  _471
REMARK  175  A    between atoms: _471  and  _472
REMARK  176  A    between atoms: _472  and  _473
REMARK  177  A    between atoms: _473  and  _474
REMARK  178  A    between atoms: _483  and  _485
REMARK  179  A    between atoms: _485  and  _486
REMARK  180  A    between atoms: _485  and  _488
REMARK  181  A    between atoms: _488  and  _489
REMARK  182  A    between atoms: _489  and  _490
REMARK  183  A    between atoms: _493  and  _495
REMARK  184  A    between atoms: _495  and  _496
REMARK  185  A    between atoms: _498  and  _500
REMARK  186  A    between atoms: _500  and  _501
REMARK  187  A    between atoms: _500  and  _503
REMARK  188  A    between atoms: _503  and  _504
REMARK  189  A    between atoms: _510  and  _511
REMARK  190  A    between atoms: _516  and  _518
REMARK  191  A    between atoms: _518  and  _519
REMARK  192  A    between atoms: _521  and  _523
REMARK  193  A    between atoms: _523  and  _524
REMARK  194  A    between atoms: _523  and  _526
REMARK  195  A    between atoms: _526  and  _527
REMARK  196  A    between atoms: _533  and  _535
REMARK  197  A    between atoms: _535  and  _536
REMARK  198  A    between atoms: _535  and  _538
REMARK  199  A    between atoms: _538  and  _539
REMARK  200  A    between atoms: _544  and  _546
REMARK  201  A    between atoms: _546  and  _547
REMARK  202  A    between atoms: _546  and  _549
REMARK  203  A    between atoms: _549  and  _550
REMARK  204  A    between atoms: _550  and  _551
REMARK  205  A    between atoms: _551  and  _552
REMARK  206  A    between atoms: _552  and  ZN_793
REMARK  207  A    between atoms: _554  and  _556
REMARK  208  A    between atoms: _556  and  _557
REMARK  209  A    between atoms: _560  and  _562
REMARK  210  A    between atoms: _562  and  _563
REMARK  211  A    between atoms: _562  and  _565
REMARK  212  A    between atoms: _565  and  _566
REMARK  213  A    between atoms: _569  and  _571
REMARK  214  A    between atoms: _571  and  _572
REMARK  215  A    between atoms: _575  and  _577
REMARK  216  A    between atoms: _577  and  _578
REMARK  217  A    between atoms: _577  and  _580
REMARK  218  A    between atoms: _580  and  _581
REMARK  219  A    between atoms: _584  and  _586
REMARK  220  A    between atoms: _586  and  _587
REMARK  221  A    between atoms: _586  and  _589
REMARK  222  A    between atoms: _589  and  _590
REMARK  223  A    between atoms: _590  and  _591
REMARK  224  A    between atoms: _591  and  _592
REMARK  225  A    between atoms: _592  and  _593
REMARK  226  A    between atoms: _597  and  _599
REMARK  227  A    between atoms: _599  and  _600
REMARK  228  A    between atoms: _599  and  _602
REMARK  229  A    between atoms: _602  and  _603
REMARK  230  A    between atoms: _609  and  _611
REMARK  231  A    between atoms: _611  and  _612
REMARK  232  A    between atoms: _611  and  _614
REMARK  233  A    between atoms: _614  and  _615
REMARK  234  A    between atoms: _621  and  _623
REMARK  235  A    between atoms: _623  and  _624
REMARK  236  A    between atoms: _623  and  _626
REMARK  237  A    between atoms: _626  and  _627
REMARK  238  A    between atoms: _629  and  _631
REMARK  239  A    between atoms: _631  and  _632
REMARK  240  A    between atoms: _631  and  _634
REMARK  241  A    between atoms: _637  and  _639
REMARK  242  A    between atoms: _639  and  _640
REMARK  243  A    between atoms: _639  and  _642
REMARK  244  A    between atoms: _642  and  _643
REMARK  245  A    between atoms: _643  and  _644
REMARK  246  A    between atoms: _644  and  _645
REMARK  247  A    between atoms: _645  and  _646
REMARK  248  A    between atoms: _650  and  _652
REMARK  249  A    between atoms: _652  and  _653
REMARK  250  A    between atoms: _652  and  _655
REMARK  251  A    between atoms: _655  and  _656
REMARK  252  A    between atoms: _662  and  _664
REMARK  253  A    between atoms: _664  and  _665
REMARK  254  A    between atoms: _664  and  _667
REMARK  255  A    between atoms: _667  and  _668
REMARK  256  A    between atoms: _673  and  _675
REMARK  257  A    between atoms: _675  and  _676
REMARK  258  A    between atoms: _675  and  _678
REMARK  259  A    between atoms: _678  and  _679
REMARK  260  A    between atoms: _681  and  _683
REMARK  261  A    between atoms: _683  and  _684
REMARK  262  A    between atoms: _683  and  _686
REMARK  263  A    between atoms: _686  and  _687
REMARK  264  A    between atoms: _689  and  _691
REMARK  265  A    between atoms: _691  and  _692
REMARK  266  A    between atoms: _691  and  _694
REMARK  267  A    between atoms: _698  and  _699
REMARK  268  A    between atoms: _704  and  _706
REMARK  269  A    between atoms: _706  and  _707
REMARK  270  A    between atoms: _706  and  _709
REMARK  271  A    between atoms: _709  and  _710
REMARK  272  A    between atoms: _715  and  _716
REMARK  273  A    between atoms: _718  and  _720
REMARK  274  A    between atoms: _720  and  _721
REMARK  275  A    between atoms: _720  and  _723
REMARK  276  A    between atoms: _723  and  _724
REMARK  277  A    between atoms: _724  and  _725
REMARK  278  A    between atoms: _725  and  _726
REMARK  279  A    between atoms: _735  and  _737
REMARK  280  A    between atoms: _737  and  _738
REMARK  281  A    between atoms: _737  and  _740
REMARK  282  A    between atoms: _740  and  _741
REMARK  283  A    between atoms: _746  and  _747
REMARK  284  A    between atoms: _749  and  _751
REMARK  285  A    between atoms: _751  and  _752
REMARK  286  A    between atoms: _751  and  _754
REMARK  287  A    between atoms: _754  and  _755
REMARK  288  A    between atoms: _761  and  _763
REMARK  289  A    between atoms: _763  and  _764
REMARK  290  A    between atoms: _763  and  _766
REMARK  291  A    between atoms: _766  and  _767
REMARK  292  A    between atoms: _769  and  _771
REMARK  293  A    between atoms: _771  and  _772
REMARK  294  A    between atoms: _771  and  _774
REMARK  295  A    between atoms: _774  and  _775
REMARK  296  A    between atoms: _781  and  _783
REMARK  297  A    between atoms: _783  and  _784
REMARK  298  A    between atoms: _783  and  _786
REMARK  299  A    between atoms: _786  and  _787
REMARK  300  A    between atoms: _787  and  _788
REMARK                            x       y       z     vdW  Elec       q    Type
REMARK                         _______ _______ _______ _____ _____    ______ ____
ROOT
ATOM      1  O   HOH     1      22.691 -13.768 -30.366  0.00  0.00    +0.000 OA
ENDROOT
TORSDOF 0
REMARK  Name = ../refined-set-2016/4ca5/4ca5_pocket.pdb
REMARK  300 active torsions:
REMARK  status: ('A' for Active; 'I' for Inactive)
REMARK    1  A    between atoms: _1  and  _3
REMARK    2  A    between atoms: _3  and  _4
REMARK    3  A    between atoms: _3  and  _6
REMARK    4  A    between atoms: _6  and  _7
REMARK    5  A    between atoms: _12  and  _14
REMARK    6  A    between atoms: _14  and  _15
REMARK    7  A    between atoms: _14  and  _17
REMARK    8  A    between atoms: _17  and  _18
REMARK    9  A    between atoms: _23  and  _25
REMARK   10  A    between atoms: _25  and  _26
REMARK   11  A    between atoms: _25  and  _28
REMARK   12  A    between atoms: _28  and  _29
REMARK   13  A    between atoms: _29  and  _30
REMARK   14  A    between atoms: _33  and  _35
REMARK   15  A    between atoms: _35  and  _36
REMARK   16  A    between atoms: _35  and  _38
REMARK   17  A    between atoms: _38  and  _39
REMARK   18  A    between atoms: _44  and  _45
REMARK   19  A    between atoms: _47  and  _49
REMARK   20  A    between atoms: _49  and  _50
REMARK   21  A    between atoms: _49  and  _52
REMARK   22  A    between atoms: _52  and  _53
REMARK   23  A    between atoms: _53  and  _54
REMARK   24  A    between atoms: _57  and  _59
REMARK   25  A    between atoms: _59  and  _60
REMARK   26  A    between atoms: _59  and  _62
REMARK   27  A    between atoms: _62  and  _63
REMARK   28  A    between atoms: _66  and  _68
REMARK   29  A    between atoms: _68  and  _69
REMARK   30  A    between atoms: _71  and  _73
REMARK   31  A    between atoms: _73  and  _74
REMARK   32  A    between atoms: _73  and  _76
REMARK   33  A    between atoms: _76  and  _77
REMARK   34  A    between atoms: _82  and  _84
REMARK   35  A    between atoms: _84  and  _85
REMARK   36  A    between atoms: _84  and  _87
REMARK   37  A    between atoms: _87  and  _88
REMARK   38  A    between atoms: _88  and  _89
REMARK   39  A    between atoms: _91  and  _93
REMARK   40  A    between atoms: _93  and  _94
REMARK   41  A    between atoms: _93  and  _96
REMARK   42  A    between atoms: _96  and  _97
REMARK   43  A    between atoms: _107  and  _109
REMARK   44  A    between atoms: _109  and  _110
REMARK   45  A    between atoms: _109  and  _112
REMARK   46  A    between atoms: _112  and  _113
REMARK   47  A    between atoms: _113  and  _114
REMARK   48  A    between atoms: _119  and  _121
REMARK   49  A    between atoms: _121  and  _122
REMARK   50  A    between atoms: _121  and  _124
REMARK   51  A    between atoms: _124  and  _125
REMARK   52  A    between atoms: _128  and  _130
REMARK   53  A    between atoms: _130  and  _131
REMARK   54  A    between atoms: _130  and  _133
REMARK   55  A    between atoms: _133  and  _134
REMARK   56  A    between atoms: _144  and  _146
REMARK   57  A    between atoms: _146  and  _147
REMARK   58  A    between atoms: _146  and  _149
REMARK   59  A    between atoms: _149  and  _150
REMARK   60  A    between atoms: _152  and  _154
REMARK   61  A    between atoms: _154  and  _155
REMARK   62  A    between atoms: _154  and  _157
REMARK   63  A    between atoms: _157  and  _158
REMARK   64  A    between atoms: _163  and  _165
REMARK   65  A    between atoms: _165  and  _166
REMARK   66  A    between atoms: _165  and  _168
REMARK   67  A    between atoms: _171  and  _173
REMARK   68  A    between atoms: _173  and  _174
REMARK   69  A    between atoms: _173  and  _176
REMARK   70  A    between atoms: _178  and  _180
REMARK   71  A    between atoms: _180  and  _181
REMARK   72  A    between atoms: _180  and  _183
REMARK   73  A    between atoms: _183  and  _184
REMARK   74  A    between atoms: _189  and  _191
REMARK   75  A    between atoms: _191  and  _192
REMARK   76  A    between atoms: _195  and  _197
REMARK   77  A    between atoms: _197  and  _198
REMARK   78  A    between atoms: _197  and  _200
REMARK   79  A    between atoms: _200  and  _201
REMARK   80  A    between atoms: _203  and  _205
REMARK   81  A    between atoms: _205  and  _206
REMARK   82  A    between atoms: _209  and  _211
REMARK   83  A    between atoms: _211  and  _212
REMARK   84  A    between atoms: _211  and  _214
REMARK   85  A    between atoms: _214  and  _215
REMARK   86  A    between atoms: _225  and  _227
REMARK   87  A    between atoms: _227  and  _228
REMARK   88  A    between atoms: _227  and  _230
REMARK   89  A    between atoms: _230  and  _231
REMARK   90  A    between atoms: _234  and  _236
REMARK   91  A    between atoms: _236  and  _237
REMARK   92  A    between atoms: _236  and  _239
REMARK   93  A    between atoms: _239  and  _240
REMARK   94  A    between atoms: _245  and  _246
REMARK   95  A    between atoms: _248  and  _250
REMARK   96  A    between atoms: _250  and  _251
REMARK   97  A    between atoms: _250  and  _253
REMARK   98  A    between atoms: _253  and  _254
REMARK   99  A    between atoms: _254  and  _255
REMARK  100  A    between atoms: _255  and  _256
REMARK  101  A    between atoms: _265  and  _267
REMARK  102  A    between atoms: _267  and  _268
REMARK  103  A    between atoms: _267  and  _270
REMARK  104  A    between atoms: _270  and  _271
REMARK  105  A    between atoms: _274  and  _276
REMARK  106  A    between atoms: _276  and  _277
REMARK  107  A    between atoms: _276  and  _279
REMARK  108  A    between atoms: _279  and  _280
REMARK  109  A    between atoms: _280  and  _281
REMARK  110  A    between atoms: _281  and  _282
REMARK  111  A    between atoms: _282  and  _283
REMARK  112  A    between atoms: _287  and  _289
REMARK  113  A    between atoms: _289  and  _290
REMARK  114  A    between atoms: _289  and  _292
REMARK  115  A    between atoms: _292  and  _293
REMARK  116  A    between atoms: _293  and  _294
REMARK  117  A    between atoms: _299  and  _301
REMARK  118  A    between atoms: _301  and  _302
REMARK  119  A    between atoms: _301  and  _304
REMARK  120  A    between atoms: _304  and  _305
REMARK  121  A    between atoms: _310  and  _312
REMARK  122  A    between atoms: _312  and  _313
REMARK  123  A    between atoms: _312  and  _315
REMARK  124  A    between atoms: _315  and  _316
REMARK  125  A    between atoms: _319  and  _321
REMARK  126  A    between atoms: _321  and  _322
REMARK  127  A    between atoms: _321  and  _324
REMARK  128  A    between atoms: _324  and  _325
REMARK  129  A    between atoms: _325  and  _326
REMARK  130  A    between atoms: _329  and  _331
REMARK  131  A    between atoms: _331  and  _332
REMARK  132  A    between atoms: _331  and  _334
REMARK  133  A    between atoms: _334  and  _335
REMARK  134  A    between atoms: _338  and  _340
REMARK  135  A    between atoms: _340  and  _341
REMARK  136  A    between atoms: _340  and  _343
REMARK  137  A    between atoms: _346  and  _348
REMARK  138  A    between atoms: _348  and  _349
REMARK  139  A    between atoms: _348  and  _351
REMARK  140  A    between atoms: _354  and  _356
REMARK  141  A    between atoms: _356  and  _357
REMARK  142  A    between atoms: _360  and  _362
REMARK  143  A    between atoms: _362  and  _363
REMARK  144  A    between atoms: _362  and  _365
REMARK  145  A    between atoms: _365  and  _366
REMARK  146  A    between atoms: _371  and  _373
REMARK  147  A    between atoms: _384  and  _387
REMARK  148  A    between atoms: _387  and  _388
REMARK  149  A    between atoms: _388  and  _389
REMARK  150  A    between atoms: _394  and  _397
REMARK  151  A    between atoms: _397  and  _398
REMARK  152  A    between atoms: _398  and  _399
REMARK  153  A    between atoms: _408  and  _409
REMARK  154  A    between atoms: _417  and  _419
REMARK  155  A    between atoms: _419  and  _420
REMARK  156  A    between atoms: _419  and  _422
REMARK  157  A    between atoms: _422  and  _423
REMARK  158  A    between atoms: _426  and  _428
REMARK  159  A    between atoms: _428  and  _429
REMARK  160  A    between atoms: _428  and  _431
REMARK  161  A    between atoms: _431  and  _432
REMARK  162  A    between atoms: _437  and  _438
REMARK  163  A    between atoms: _440  and  _442
REMARK  164  A    between atoms: _442  and  _443
REMARK  165  A    between atoms: _442  and  _445
REMARK  166  A    between atoms: _445  and  _446
REMARK  167  A    between atoms: _452  and  _454
REMARK  168  A    between atoms: _454  and  _455
REMARK  169  A    between atoms: _454  and  _457
REMARK  170  A    between atoms: _457  and  _458
REMARK  171  A    between atoms: _463  and  _464
REMARK  172  A    between atoms: _466  and  _468
REMARK  173  A    between atoms: _468  and  _469
REMARK  174  A    between atoms: _468  and  _471
REMARK  175  A    between atoms: _471  and  _472
REMARK  176  A    between atoms: _472  and  _473
REMARK  177  A    between atoms: _473  and  _474
REMARK  178  A    between atoms: _483  and  _485
REMARK  179  A    between atoms: _485  and  _486
REMARK  180  A    between atoms: _485  and  _488
REMARK  181  A    between atoms: _488  and  _489
REMARK  182  A    between atoms: _489  and  _490
REMARK  183  A    between atoms: _493  and  _495
REMARK  184  A    between atoms: _495  and  _496
REMARK  185  A    between atoms: _498  and  _500
REMARK  186  A    between atoms: _500  and  _501
REMARK  187  A    between atoms: _500  and  _503
REMARK  188  A    between atoms: _503  and  _504
REMARK  189  A    between atoms: _510  and  _511
REMARK  190  A    between atoms: _516  and  _518
REMARK  191  A    between atoms: _518  and  _519
REMARK  192  A    between atoms: _521  and  _523
REMARK  193  A    between atoms: _523  and  _524
REMARK  194  A    between atoms: _523  and  _526
REMARK  195  A    between atoms: _526  and  _527
REMARK  196  A    between atoms: _533  and  _535
REMARK  197  A    between atoms: _535  and  _536
REMARK  198  A    between atoms: _535  and  _538
REMARK  199  A    between atoms: _538  and  _539
REMARK  200  A    between atoms: _544  and  _546
REMARK  201  A    between atoms: _546  and  _547
REMARK  202  A    between atoms: _546  and  _549
REMARK  203  A    between atoms: _549  and  _550
REMARK  204  A    between atoms: _550  and  _551
REMARK  205  A    between atoms: _551  and  _552
REMARK  206  A    between atoms: _552  and  ZN_793
REMARK  207  A    between atoms: _554  and  _556
REMARK  208  A    between atoms: _556  and  _557
REMARK  209  A    between atoms: _560  and  _562
REMARK  210  A    between atoms: _562  and  _563
REMARK  211  A    between atoms: _562  and  _565
REMARK  212  A    between atoms: _565  and  _566
REMARK  213  A    between atoms: _569  and  _571
REMARK  214  A    between atoms: _571  and  _572
REMARK  215  A    between atoms: _575  and  _577
REMARK  216  A    between atoms: _577  and  _578
REMARK  217  A    between atoms: _577  and  _580
REMARK  218  A    between atoms: _580  and  _581
REMARK  219  A    between atoms: _584  and  _586
REMARK  220  A    between atoms: _586  and  _587
REMARK  221  A    between atoms: _586  and  _589
REMARK  222  A    between atoms: _589  and  _590
REMARK  223  A    between atoms: _590  and  _591
REMARK  224  A    between atoms: _591  and  _592
REMARK  225  A    between atoms: _592  and  _593
REMARK  226  A    between atoms: _597  and  _599
REMARK  227  A    between atoms: _599  and  _600
REMARK  228  A    between atoms: _599  and  _602
REMARK  229  A    between atoms: _602  and  _603
REMARK  230  A    between atoms: _609  and  _611
REMARK  231  A    between atoms: _611  and  _612
REMARK  232  A    between atoms: _611  and  _614
REMARK  233  A    between atoms: _614  and  _615
REMARK  234  A    between atoms: _621  and  _623
REMARK  235  A    between atoms: _623  and  _624
REMARK  236  A    between atoms: _623  and  _626
REMARK  237  A    between atoms: _626  and  _627
REMARK  238  A    between atoms: _629  and  _631
REMARK  239  A    between atoms: _631  and  _632
REMARK  240  A    between atoms: _631  and  _634
REMARK  241  A    between atoms: _637  and  _639
REMARK  242  A    between atoms: _639  and  _640
REMARK  243  A    between atoms: _639  and  _642
REMARK  244  A    between atoms: _642  and  _643
REMARK  245  A    between atoms: _643  and  _644
REMARK  246  A    between atoms: _644  and  _645
REMARK  247  A    between atoms: _645  and  _646
REMARK  248  A    between atoms: _650  and  _652
REMARK  249  A    between atoms: _652  and  _653
REMARK  250  A    between atoms: _652  and  _655
REMARK  251  A    between atoms: _655  and  _656
REMARK  252  A    between atoms: _662  and  _664
REMARK  253  A    between atoms: _664  and  _665
REMARK  254  A    between atoms: _664  and  _667
REMARK  255  A    between atoms: _667  and  _668
REMARK  256  A    between atoms: _673  and  _675
REMARK  257  A    between atoms: _675  and  _676
REMARK  258  A    between atoms: _675  and  _678
REMARK  259  A    between atoms: _678  and  _679
REMARK  260  A    between atoms: _681  and  _683
REMARK  261  A    between atoms: _683  and  _684
REMARK  262  A    between atoms: _683  and  _686
REMARK  263  A    between atoms: _686  and  _687
REMARK  264  A    between atoms: _689  and  _691
REMARK  265  A    between atoms: _691  and  _692
REMARK  266  A    between atoms: _691  and  _694
REMARK  267  A    between atoms: _698  and  _699
REMARK  268  A    between atoms: _704  and  _706
REMARK  269  A    between atoms: _706  and  _707
REMARK  270  A    between atoms: _706  and  _709
REMARK  271  A    between atoms: _709  and  _710
REMARK  272  A    between atoms: _715  and  _716
REMARK  273  A    between atoms: _718  and  _720
REMARK  274  A    between atoms: _720  and  _721
REMARK  275  A    between atoms: _720  and  _723
REMARK  276  A    between atoms: _723  and  _724
REMARK  277  A    between atoms: _724  and  _725
REMARK  278  A    between atoms: _725  and  _726
REMARK  279  A    between atoms: _735  and  _737
REMARK  280  A    between atoms: _737  and  _738
REMARK  281  A    between atoms: _737  and  _740
REMARK  282  A    between atoms: _740  and  _741
REMARK  283  A    between atoms: _746  and  _747
REMARK  284  A    between atoms: _749  and  _751
REMARK  285  A    between atoms: _751  and  _752
REMARK  286  A    between atoms: _751  and  _754
REMARK  287  A    between atoms: _754  and  _755
REMARK  288  A    between atoms: _761  and  _763
REMARK  289  A    between atoms: _763  and  _764
REMARK  290  A    between atoms: _763  and  _766
REMARK  291  A    between atoms: _766  and  _767
REMARK  292  A    between atoms: _769  and  _771
REMARK  293  A    between atoms: _771  and  _772
REMARK  294  A    between atoms: _771  and  _774
REMARK  295  A    between atoms: _774  and  _775
REMARK  296  A    between atoms: _781  and  _783
REMARK  297  A    between atoms: _783  and  _784
REMARK  298  A    between atoms: _783  and  _786
REMARK  299  A    between atoms: _786  and  _787
REMARK  300  A    between atoms: _787  and  _788
REMARK                            x       y       z     vdW  Elec       q    Type
REMARK                         _______ _______ _______ _____ _____    ______ ____
ROOT
ATOM      1  O   HOH     1      14.737 -16.605 -33.547  0.00  0.00    +0.000 OA
ENDROOT
TORSDOF 0
REMARK  Name = ../refined-set-2016/4ca5/4ca5_pocket.pdb
REMARK  300 active torsions:
REMARK  status: ('A' for Active; 'I' for Inactive)
REMARK    1  A    between atoms: _1  and  _3
REMARK    2  A    between atoms: _3  and  _4
REMARK    3  A    between atoms: _3  and  _6
REMARK    4  A    between atoms: _6  and  _7
REMARK    5  A    between atoms: _12  and  _14
REMARK    6  A    between atoms: _14  and  _15
REMARK    7  A    between atoms: _14  and  _17
REMARK    8  A    between atoms: _17  and  _18
REMARK    9  A    between atoms: _23  and  _25
REMARK   10  A    between atoms: _25  and  _26
REMARK   11  A    between atoms: _25  and  _28
REMARK   12  A    between atoms: _28  and  _29
REMARK   13  A    between atoms: _29  and  _30
REMARK   14  A    between atoms: _33  and  _35
REMARK   15  A    between atoms: _35  and  _36
REMARK   16  A    between atoms: _35  and  _38
REMARK   17  A    between atoms: _38  and  _39
REMARK   18  A    between atoms: _44  and  _45
REMARK   19  A    between atoms: _47  and  _49
REMARK   20  A    between atoms: _49  and  _50
REMARK   21  A    between atoms: _49  and  _52
REMARK   22  A    between atoms: _52  and  _53
REMARK   23  A    between atoms: _53  and  _54
REMARK   24  A    between atoms: _57  and  _59
REMARK   25  A    between atoms: _59  and  _60
REMARK   26  A    between atoms: _59  and  _62
REMARK   27  A    between atoms: _62  and  _63
REMARK   28  A    between atoms: _66  and  _68
REMARK   29  A    between atoms: _68  and  _69
REMARK   30  A    between atoms: _71  and  _73
REMARK   31  A    between atoms: _73  and  _74
REMARK   32  A    between atoms: _73  and  _76
REMARK   33  A    between atoms: _76  and  _77
REMARK   34  A    between atoms: _82  and  _84
REMARK   35  A    between atoms: _84  and  _85
REMARK   36  A    between atoms: _84  and  _87
REMARK   37  A    between atoms: _87  and  _88
REMARK   38  A    between atoms: _88  and  _89
REMARK   39  A    between atoms: _91  and  _93
REMARK   40  A    between atoms: _93  and  _94
REMARK   41  A    between atoms: _93  and  _96
REMARK   42  A    between atoms: _96  and  _97
REMARK   43  A    between atoms: _107  and  _109
REMARK   44  A    between atoms: _109  and  _110
REMARK   45  A    between atoms: _109  and  _112
REMARK   46  A    between atoms: _112  and  _113
REMARK   47  A    between atoms: _113  and  _114
REMARK   48  A    between atoms: _119  and  _121
REMARK   49  A    between atoms: _121  and  _122
REMARK   50  A    between atoms: _121  and  _124
REMARK   51  A    between atoms: _124  and  _125
REMARK   52  A    between atoms: _128  and  _130
REMARK   53  A    between atoms: _130  and  _131
REMARK   54  A    between atoms: _130  and  _133
REMARK   55  A    between atoms: _133  and  _134
REMARK   56  A    between atoms: _144  and  _146
REMARK   57  A    between atoms: _146  and  _147
REMARK   58  A    between atoms: _146  and  _149
REMARK   59  A    between atoms: _149  and  _150
REMARK   60  A    between atoms: _152  and  _154
REMARK   61  A    between atoms: _154  and  _155
REMARK   62  A    between atoms: _154  and  _157
REMARK   63  A    between atoms: _157  and  _158
REMARK   64  A    between atoms: _163  and  _165
REMARK   65  A    between atoms: _165  and  _166
REMARK   66  A    between atoms: _165  and  _168
REMARK   67  A    between atoms: _171  and  _173
REMARK   68  A    between atoms: _173  and  _174
REMARK   69  A    between atoms: _173  and  _176
REMARK   70  A    between atoms: _178  and  _180
REMARK   71  A    between atoms: _180  and  _181
REMARK   72  A    between atoms: _180  and  _183
REMARK   73  A    between atoms: _183  and  _184
REMARK   74  A    between atoms: _189  and  _191
REMARK   75  A    between atoms: _191  and  _192
REMARK   76  A    between atoms: _195  and  _197
REMARK   77  A    between atoms: _197  and  _198
REMARK   78  A    between atoms: _197  and  _200
REMARK   79  A    between atoms: _200  and  _201
REMARK   80  A    between atoms: _203  and  _205
REMARK   81  A    between atoms: _205  and  _206
REMARK   82  A    between atoms: _209  and  _211
REMARK   83  A    between atoms: _211  and  _212
REMARK   84  A    between atoms: _211  and  _214
REMARK   85  A    between atoms: _214  and  _215
REMARK   86  A    between atoms: _225  and  _227
REMARK   87  A    between atoms: _227  and  _228
REMARK   88  A    between atoms: _227  and  _230
REMARK   89  A    between atoms: _230  and  _231
REMARK   90  A    between atoms: _234  and  _236
REMARK   91  A    between atoms: _236  and  _237
REMARK   92  A    between atoms: _236  and  _239
REMARK   93  A    between atoms: _239  and  _240
REMARK   94  A    between atoms: _245  and  _246
REMARK   95  A    between atoms: _248  and  _250
REMARK   96  A    between atoms: _250  and  _251
REMARK   97  A    between atoms: _250  and  _253
REMARK   98  A    between atoms: _253  and  _254
REMARK   99  A    between atoms: _254  and  _255
REMARK  100  A    between atoms: _255  and  _256
REMARK  101  A    between atoms: _265  and  _267
REMARK  102  A    between atoms: _267  and  _268
REMARK  103  A    between atoms: _267  and  _270
REMARK  104  A    between atoms: _270  and  _271
REMARK  105  A    between atoms: _274  and  _276
REMARK  106  A    between atoms: _276  and  _277
REMARK  107  A    between atoms: _276  and  _279
REMARK  108  A    between atoms: _279  and  _280
REMARK  109  A    between atoms: _280  and  _281
REMARK  110  A    between atoms: _281  and  _282
REMARK  111  A    between atoms: _282  and  _283
REMARK  112  A    between atoms: _287  and  _289
REMARK  113  A    between atoms: _289  and  _290
REMARK  114  A    between atoms: _289  and  _292
REMARK  115  A    between atoms: _292  and  _293
REMARK  116  A    between atoms: _293  and  _294
REMARK  117  A    between atoms: _299  and  _301
REMARK  118  A    between atoms: _301  and  _302
REMARK  119  A    between atoms: _301  and  _304
REMARK  120  A    between atoms: _304  and  _305
REMARK  121  A    between atoms: _310  and  _312
REMARK  122  A    between atoms: _312  and  _313
REMARK  123  A    between atoms: _312  and  _315
REMARK  124  A    between atoms: _315  and  _316
REMARK  125  A    between atoms: _319  and  _321
REMARK  126  A    between atoms: _321  and  _322
REMARK  127  A    between atoms: _321  and  _324
REMARK  128  A    between atoms: _324  and  _325
REMARK  129  A    between atoms: _325  and  _326
REMARK  130  A    between atoms: _329  and  _331
REMARK  131  A    between atoms: _331  and  _332
REMARK  132  A    between atoms: _331  and  _334
REMARK  133  A    between atoms: _334  and  _335
REMARK  134  A    between atoms: _338  and  _340
REMARK  135  A    between atoms: _340  and  _341
REMARK  136  A    between atoms: _340  and  _343
REMARK  137  A    between atoms: _346  and  _348
REMARK  138  A    between atoms: _348  and  _349
REMARK  139  A    between atoms: _348  and  _351
REMARK  140  A    between atoms: _354  and  _356
REMARK  141  A    between atoms: _356  and  _357
REMARK  142  A    between atoms: _360  and  _362
REMARK  143  A    between atoms: _362  and  _363
REMARK  144  A    between atoms: _362  and  _365
REMARK  145  A    between atoms: _365  and  _366
REMARK  146  A    between atoms: _371  and  _373
REMARK  147  A    between atoms: _384  and  _387
REMARK  148  A    between atoms: _387  and  _388
REMARK  149  A    between atoms: _388  and  _389
REMARK  150  A    between atoms: _394  and  _397
REMARK  151  A    between atoms: _397  and  _398
REMARK  152  A    between atoms: _398  and  _399
REMARK  153  A    between atoms: _408  and  _409
REMARK  154  A    between atoms: _417  and  _419
REMARK  155  A    between atoms: _419  and  _420
REMARK  156  A    between atoms: _419  and  _422
REMARK  157  A    between atoms: _422  and  _423
REMARK  158  A    between atoms: _426  and  _428
REMARK  159  A    between atoms: _428  and  _429
REMARK  160  A    between atoms: _428  and  _431
REMARK  161  A    between atoms: _431  and  _432
REMARK  162  A    between atoms: _437  and  _438
REMARK  163  A    between atoms: _440  and  _442
REMARK  164  A    between atoms: _442  and  _443
REMARK  165  A    between atoms: _442  and  _445
REMARK  166  A    between atoms: _445  and  _446
REMARK  167  A    between atoms: _452  and  _454
REMARK  168  A    between atoms: _454  and  _455
REMARK  169  A    between atoms: _454  and  _457
REMARK  170  A    between atoms: _457  and  _458
REMARK  171  A    between atoms: _463  and  _464
REMARK  172  A    between atoms: _466  and  _468
REMARK  173  A    between atoms: _468  and  _469
REMARK  174  A    between atoms: _468  and  _471
REMARK  175  A    between atoms: _471  and  _472
REMARK  176  A    between atoms: _472  and  _473
REMARK  177  A    between atoms: _473  and  _474
REMARK  178  A    between atoms: _483  and  _485
REMARK  179  A    between atoms: _485  and  _486
REMARK  180  A    between atoms: _485  and  _488
REMARK  181  A    between atoms: _488  and  _489
REMARK  182  A    between atoms: _489  and  _490
REMARK  183  A    between atoms: _493  and  _495
REMARK  184  A    between atoms: _495  and  _496
REMARK  185  A    between atoms: _498  and  _500
REMARK  186  A    between atoms: _500  and  _501
REMARK  187  A    between atoms: _500  and  _503
REMARK  188  A    between atoms: _503  and  _504
REMARK  189  A    between atoms: _510  and  _511
REMARK  190  A    between atoms: _516  and  _518
REMARK  191  A    between atoms: _518  and  _519
REMARK  192  A    between atoms: _521  and  _523
REMARK  193  A    between atoms: _523  and  _524
REMARK  194  A    between atoms: _523  and  _526
REMARK  195  A    between atoms: _526  and  _527
REMARK  196  A    between atoms: _533  and  _535
REMARK  197  A    between atoms: _535  and  _536
REMARK  198  A    between atoms: _535  and  _538
REMARK  199  A    between atoms: _538  and  _539
REMARK  200  A    between atoms: _544  and  _546
REMARK  201  A    between atoms: _546  and  _547
REMARK  202  A    between atoms: _546  and  _549
REMARK  203  A    between atoms: _549  and  _550
REMARK  204  A    between atoms: _550  and  _551
REMARK  205  A    between atoms: _551  and  _552
REMARK  206  A    between atoms: _552  and  ZN_793
REMARK  207  A    between atoms: _554  and  _556
REMARK  208  A    between atoms: _556  and  _557
REMARK  209  A    between atoms: _560  and  _562
REMARK  210  A    between atoms: _562  and  _563
REMARK  211  A    between atoms: _562  and  _565
REMARK  212  A    between atoms: _565  and  _566
REMARK  213  A    between atoms: _569  and  _571
REMARK  214  A    between atoms: _571  and  _572
REMARK  215  A    between atoms: _575  and  _577
REMARK  216  A    between atoms: _577  and  _578
REMARK  217  A    between atoms: _577  and  _580
REMARK  218  A    between atoms: _580  and  _581
REMARK  219  A    between atoms: _584  and  _586
REMARK  220  A    between atoms: _586  and  _587
REMARK  221  A    between atoms: _586  and  _589
REMARK  222  A    between atoms: _589  and  _590
REMARK  223  A    between atoms: _590  and  _591
REMARK  224  A    between atoms: _591  and  _592
REMARK  225  A    between atoms: _592  and  _593
REMARK  226  A    between atoms: _597  and  _599
REMARK  227  A    between atoms: _599  and  _600
REMARK  228  A    between atoms: _599  and  _602
REMARK  229  A    between atoms: _602  and  _603
REMARK  230  A    between atoms: _609  and  _611
REMARK  231  A    between atoms: _611  and  _612
REMARK  232  A    between atoms: _611  and  _614
REMARK  233  A    between atoms: _614  and  _615
REMARK  234  A    between atoms: _621  and  _623
REMARK  235  A    between atoms: _623  and  _624
REMARK  236  A    between atoms: _623  and  _626
REMARK  237  A    between atoms: _626  and  _627
REMARK  238  A    between atoms: _629  and  _631
REMARK  239  A    between atoms: _631  and  _632
REMARK  240  A    between atoms: _631  and  _634
REMARK  241  A    between atoms: _637  and  _639
REMARK  242  A    between atoms: _639  and  _640
REMARK  243  A    between atoms: _639  and  _642
REMARK  244  A    between atoms: _642  and  _643
REMARK  245  A    between atoms: _643  and  _644
REMARK  246  A    between atoms: _644  and  _645
REMARK  247  A    between atoms: _645  and  _646
REMARK  248  A    between atoms: _650  and  _652
REMARK  249  A    between atoms: _652  and  _653
REMARK  250  A    between atoms: _652  and  _655
REMARK  251  A    between atoms: _655  and  _656
REMARK  252  A    between atoms: _662  and  _664
REMARK  253  A    between atoms: _664  and  _665
REMARK  254  A    between atoms: _664  and  _667
REMARK  255  A    between atoms: _667  and  _668
REMARK  256  A    between atoms: _673  and  _675
REMARK  257  A    between atoms: _675  and  _676
REMARK  258  A    between atoms: _675  and  _678
REMARK  259  A    between atoms: _678  and  _679
REMARK  260  A    between atoms: _681  and  _683
REMARK  261  A    between atoms: _683  and  _684
REMARK  262  A    between atoms: _683  and  _686
REMARK  263  A    between atoms: _686  and  _687
REMARK  264  A    between atoms: _689  and  _691
REMARK  265  A    between atoms: _691  and  _692
REMARK  266  A    between atoms: _691  and  _694
REMARK  267  A    between atoms: _698  and  _699
REMARK  268  A    between atoms: _704  and  _706
REMARK  269  A    between atoms: _706  and  _707
REMARK  270  A    between atoms: _706  and  _709
REMARK  271  A    between atoms: _709  and  _710
REMARK  272  A    between atoms: _715  and  _716
REMARK  273  A    between atoms: _718  and  _720
REMARK  274  A    between atoms: _720  and  _721
REMARK  275  A    between atoms: _720  and  _723
REMARK  276  A    between atoms: _723  and  _724
REMARK  277  A    between atoms: _724  and  _725
REMARK  278  A    between atoms: _725  and  _726
REMARK  279  A    between atoms: _735  and  _737
REMARK  280  A    between atoms: _737  and  _738
REMARK  281  A    between atoms: _737  and  _740
REMARK  282  A    between atoms: _740  and  _741
REMARK  283  A    between atoms: _746  and  _747
REMARK  284  A    between atoms: _749  and  _751
REMARK  285  A    between atoms: _751  and  _752
REMARK  286  A    between atoms: _751  and  _754
REMARK  287  A    between atoms: _754  and  _755
REMARK  288  A    between atoms: _761  and  _763
REMARK  289  A    between atoms: _763  and  _764
REMARK  290  A    between atoms: _763  and  _766
REMARK  291  A    between atoms: _766  and  _767
REMARK  292  A    between atoms: _769  and  _771
REMARK  293  A    between atoms: _771  and  _772
REMARK  294  A    between atoms: _771  and  _774
REMARK  295  A    between atoms: _774  and  _775
REMARK  296  A    between atoms: _781  and  _783
REMARK  297  A    between atoms: _783  and  _784
REMARK  298  A    between atoms: _783  and  _786
REMARK  299  A    between atoms: _786  and  _787
REMARK  300  A    between atoms: _787  and  _788
REMARK                            x       y       z     vdW  Elec       q    Type
REMARK                         _______ _______ _______ _____ _____    ______ ____
ROOT
ATOM      1  O   HOH     1      12.926 -16.129 -26.566  0.00  0.00    +0.000 OA
ENDROOT
TORSDOF 0
REMARK  Name = ../refined-set-2016/4ca5/4ca5_pocket.pdb
REMARK  300 active torsions:
REMARK  status: ('A' for Active; 'I' for Inactive)
REMARK    1  A    between atoms: _1  and  _3
REMARK    2  A    between atoms: _3  and  _4
REMARK    3  A    between atoms: _3  and  _6
REMARK    4  A    between atoms: _6  and  _7
REMARK    5  A    between atoms: _12  and  _14
REMARK    6  A    between atoms: _14  and  _15
REMARK    7  A    between atoms: _14  and  _17
REMARK    8  A    between atoms: _17  and  _18
REMARK    9  A    between atoms: _23  and  _25
REMARK   10  A    between atoms: _25  and  _26
REMARK   11  A    between atoms: _25  and  _28
REMARK   12  A    between atoms: _28  and  _29
REMARK   13  A    between atoms: _29  and  _30
REMARK   14  A    between atoms: _33  and  _35
REMARK   15  A    between atoms: _35  and  _36
REMARK   16  A    between atoms: _35  and  _38
REMARK   17  A    between atoms: _38  and  _39
REMARK   18  A    between atoms: _44  and  _45
REMARK   19  A    between atoms: _47  and  _49
REMARK   20  A    between atoms: _49  and  _50
REMARK   21  A    between atoms: _49  and  _52
REMARK   22  A    between atoms: _52  and  _53
REMARK   23  A    between atoms: _53  and  _54
REMARK   24  A    between atoms: _57  and  _59
REMARK   25  A    between atoms: _59  and  _60
REMARK   26  A    between atoms: _59  and  _62
REMARK   27  A    between atoms: _62  and  _63
REMARK   28  A    between atoms: _66  and  _68
REMARK   29  A    between atoms: _68  and  _69
REMARK   30  A    between atoms: _71  and  _73
REMARK   31  A    between atoms: _73  and  _74
REMARK   32  A    between atoms: _73  and  _76
REMARK   33  A    between atoms: _76  and  _77
REMARK   34  A    between atoms: _82  and  _84
REMARK   35  A    between atoms: _84  and  _85
REMARK   36  A    between atoms: _84  and  _87
REMARK   37  A    between atoms: _87  and  _88
REMARK   38  A    between atoms: _88  and  _89
REMARK   39  A    between atoms: _91  and  _93
REMARK   40  A    between atoms: _93  and  _94
REMARK   41  A    between atoms: _93  and  _96
REMARK   42  A    between atoms: _96  and  _97
REMARK   43  A    between atoms: _107  and  _109
REMARK   44  A    between atoms: _109  and  _110
REMARK   45  A    between atoms: _109  and  _112
REMARK   46  A    between atoms: _112  and  _113
REMARK   47  A    between atoms: _113  and  _114
REMARK   48  A    between atoms: _119  and  _121
REMARK   49  A    between atoms: _121  and  _122
REMARK   50  A    between atoms: _121  and  _124
REMARK   51  A    between atoms: _124  and  _125
REMARK   52  A    between atoms: _128  and  _130
REMARK   53  A    between atoms: _130  and  _131
REMARK   54  A    between atoms: _130  and  _133
REMARK   55  A    between atoms: _133  and  _134
REMARK   56  A    between atoms: _144  and  _146
REMARK   57  A    between atoms: _146  and  _147
REMARK   58  A    between atoms: _146  and  _149
REMARK   59  A    between atoms: _149  and  _150
REMARK   60  A    between atoms: _152  and  _154
REMARK   61  A    between atoms: _154  and  _155
REMARK   62  A    between atoms: _154  and  _157
REMARK   63  A    between atoms: _157  and  _158
REMARK   64  A    between atoms: _163  and  _165
REMARK   65  A    between atoms: _165  and  _166
REMARK   66  A    between atoms: _165  and  _168
REMARK   67  A    between atoms: _171  and  _173
REMARK   68  A    between atoms: _173  and  _174
REMARK   69  A    between atoms: _173  and  _176
REMARK   70  A    between atoms: _178  and  _180
REMARK   71  A    between atoms: _180  and  _181
REMARK   72  A    between atoms: _180  and  _183
REMARK   73  A    between atoms: _183  and  _184
REMARK   74  A    between atoms: _189  and  _191
REMARK   75  A    between atoms: _191  and  _192
REMARK   76  A    between atoms: _195  and  _197
REMARK   77  A    between atoms: _197  and  _198
REMARK   78  A    between atoms: _197  and  _200
REMARK   79  A    between atoms: _200  and  _201
REMARK   80  A    between atoms: _203  and  _205
REMARK   81  A    between atoms: _205  and  _206
REMARK   82  A    between atoms: _209  and  _211
REMARK   83  A    between atoms: _211  and  _212
REMARK   84  A    between atoms: _211  and  _214
REMARK   85  A    between atoms: _214  and  _215
REMARK   86  A    between atoms: _225  and  _227
REMARK   87  A    between atoms: _227  and  _228
REMARK   88  A    between atoms: _227  and  _230
REMARK   89  A    between atoms: _230  and  _231
REMARK   90  A    between atoms: _234  and  _236
REMARK   91  A    between atoms: _236  and  _237
REMARK   92  A    between atoms: _236  and  _239
REMARK   93  A    between atoms: _239  and  _240
REMARK   94  A    between atoms: _245  and  _246
REMARK   95  A    between atoms: _248  and  _250
REMARK   96  A    between atoms: _250  and  _251
REMARK   97  A    between atoms: _250  and  _253
REMARK   98  A    between atoms: _253  and  _254
REMARK   99  A    between atoms: _254  and  _255
REMARK  100  A    between atoms: _255  and  _256
REMARK  101  A    between atoms: _265  and  _267
REMARK  102  A    between atoms: _267  and  _268
REMARK  103  A    between atoms: _267  and  _270
REMARK  104  A    between atoms: _270  and  _271
REMARK  105  A    between atoms: _274  and  _276
REMARK  106  A    between atoms: _276  and  _277
REMARK  107  A    between atoms: _276  and  _279
REMARK  108  A    between atoms: _279  and  _280
REMARK  109  A    between atoms: _280  and  _281
REMARK  110  A    between atoms: _281  and  _282
REMARK  111  A    between atoms: _282  and  _283
REMARK  112  A    between atoms: _287  and  _289
REMARK  113  A    between atoms: _289  and  _290
REMARK  114  A    between atoms: _289  and  _292
REMARK  115  A    between atoms: _292  and  _293
REMARK  116  A    between atoms: _293  and  _294
REMARK  117  A    between atoms: _299  and  _301
REMARK  118  A    between atoms: _301  and  _302
REMARK  119  A    between atoms: _301  and  _304
REMARK  120  A    between atoms: _304  and  _305
REMARK  121  A    between atoms: _310  and  _312
REMARK  122  A    between atoms: _312  and  _313
REMARK  123  A    between atoms: _312  and  _315
REMARK  124  A    between atoms: _315  and  _316
REMARK  125  A    between atoms: _319  and  _321
REMARK  126  A    between atoms: _321  and  _322
REMARK  127  A    between atoms: _321  and  _324
REMARK  128  A    between atoms: _324  and  _325
REMARK  129  A    between atoms: _325  and  _326
REMARK  130  A    between atoms: _329  and  _331
REMARK  131  A    between atoms: _331  and  _332
REMARK  132  A    between atoms: _331  and  _334
REMARK  133  A    between atoms: _334  and  _335
REMARK  134  A    between atoms: _338  and  _340
REMARK  135  A    between atoms: _340  and  _341
REMARK  136  A    between atoms: _340  and  _343
REMARK  137  A    between atoms: _346  and  _348
REMARK  138  A    between atoms: _348  and  _349
REMARK  139  A    between atoms: _348  and  _351
REMARK  140  A    between atoms: _354  and  _356
REMARK  141  A    between atoms: _356  and  _357
REMARK  142  A    between atoms: _360  and  _362
REMARK  143  A    between atoms: _362  and  _363
REMARK  144  A    between atoms: _362  and  _365
REMARK  145  A    between atoms: _365  and  _366
REMARK  146  A    between atoms: _371  and  _373
REMARK  147  A    between atoms: _384  and  _387
REMARK  148  A    between atoms: _387  and  _388
REMARK  149  A    between atoms: _388  and  _389
REMARK  150  A    between atoms: _394  and  _397
REMARK  151  A    between atoms: _397  and  _398
REMARK  152  A    between atoms: _398  and  _399
REMARK  153  A    between atoms: _408  and  _409
REMARK  154  A    between atoms: _417  and  _419
REMARK  155  A    between atoms: _419  and  _420
REMARK  156  A    between atoms: _419  and  _422
REMARK  157  A    between atoms: _422  and  _423
REMARK  158  A    between atoms: _426  and  _428
REMARK  159  A    between atoms: _428  and  _429
REMARK  160  A    between atoms: _428  and  _431
REMARK  161  A    between atoms: _431  and  _432
REMARK  162  A    between atoms: _437  and  _438
REMARK  163  A    between atoms: _440  and  _442
REMARK  164  A    between atoms: _442  and  _443
REMARK  165  A    between atoms: _442  and  _445
REMARK  166  A    between atoms: _445  and  _446
REMARK  167  A    between atoms: _452  and  _454
REMARK  168  A    between atoms: _454  and  _455
REMARK  169  A    between atoms: _454  and  _457
REMARK  170  A    between atoms: _457  and  _458
REMARK  171  A    between atoms: _463  and  _464
REMARK  172  A    between atoms: _466  and  _468
REMARK  173  A    between atoms: _468  and  _469
REMARK  174  A    between atoms: _468  and  _471
REMARK  175  A    between atoms: _471  and  _472
REMARK  176  A    between atoms: _472  and  _473
REMARK  177  A    between atoms: _473  and  _474
REMARK  178  A    between atoms: _483  and  _485
REMARK  179  A    between atoms: _485  and  _486
REMARK  180  A    between atoms: _485  and  _488
REMARK  181  A    between atoms: _488  and  _489
REMARK  182  A    between atoms: _489  and  _490
REMARK  183  A    between atoms: _493  and  _495
REMARK  184  A    between atoms: _495  and  _496
REMARK  185  A    between atoms: _498  and  _500
REMARK  186  A    between atoms: _500  and  _501
REMARK  187  A    between atoms: _500  and  _503
REMARK  188  A    between atoms: _503  and  _504
REMARK  189  A    between atoms: _510  and  _511
REMARK  190  A    between atoms: _516  and  _518
REMARK  191  A    between atoms: _518  and  _519
REMARK  192  A    between atoms: _521  and  _523
REMARK  193  A    between atoms: _523  and  _524
REMARK  194  A    between atoms: _523  and  _526
REMARK  195  A    between atoms: _526  and  _527
REMARK  196  A    between atoms: _533  and  _535
REMARK  197  A    between atoms: _535  and  _536
REMARK  198  A    between atoms: _535  and  _538
REMARK  199  A    between atoms: _538  and  _539
REMARK  200  A    between atoms: _544  and  _546
REMARK  201  A    between atoms: _546  and  _547
REMARK  202  A    between atoms: _546  and  _549
REMARK  203  A    between atoms: _549  and  _550
REMARK  204  A    between atoms: _550  and  _551
REMARK  205  A    between atoms: _551  and  _552
REMARK  206  A    between atoms: _552  and  ZN_793
REMARK  207  A    between atoms: _554  and  _556
REMARK  208  A    between atoms: _556  and  _557
REMARK  209  A    between atoms: _560  and  _562
REMARK  210  A    between atoms: _562  and  _563
REMARK  211  A    between atoms: _562  and  _565
REMARK  212  A    between atoms: _565  and  _566
REMARK  213  A    between atoms: _569  and  _571
REMARK  214  A    between atoms: _571  and  _572
REMARK  215  A    between atoms: _575  and  _577
REMARK  216  A    between atoms: _577  and  _578
REMARK  217  A    between atoms: _577  and  _580
REMARK  218  A    between atoms: _580  and  _581
REMARK  219  A    between atoms: _584  and  _586
REMARK  220  A    between atoms: _586  and  _587
REMARK  221  A    between atoms: _586  and  _589
REMARK  222  A    between atoms: _589  and  _590
REMARK  223  A    between atoms: _590  and  _591
REMARK  224  A    between atoms: _591  and  _592
REMARK  225  A    between atoms: _592  and  _593
REMARK  226  A    between atoms: _597  and  _599
REMARK  227  A    between atoms: _599  and  _600
REMARK  228  A    between atoms: _599  and  _602
REMARK  229  A    between atoms: _602  and  _603
REMARK  230  A    between atoms: _609  and  _611
REMARK  231  A    between atoms: _611  and  _612
REMARK  232  A    between atoms: _611  and  _614
REMARK  233  A    between atoms: _614  and  _615
REMARK  234  A    between atoms: _621  and  _623
REMARK  235  A    between atoms: _623  and  _624
REMARK  236  A    between atoms: _623  and  _626
REMARK  237  A    between atoms: _626  and  _627
REMARK  238  A    between atoms: _629  and  _631
REMARK  239  A    between atoms: _631  and  _632
REMARK  240  A    between atoms: _631  and  _634
REMARK  241  A    between atoms: _637  and  _639
REMARK  242  A    between atoms: _639  and  _640
REMARK  243  A    between atoms: _639  and  _642
REMARK  244  A    between atoms: _642  and  _643
REMARK  245  A    between atoms: _643  and  _644
REMARK  246  A    between atoms: _644  and  _645
REMARK  247  A    between atoms: _645  and  _646
REMARK  248  A    between atoms: _650  and  _652
REMARK  249  A    between atoms: _652  and  _653
REMARK  250  A    between atoms: _652  and  _655
REMARK  251  A    between atoms: _655  and  _656
REMARK  252  A    between atoms: _662  and  _664
REMARK  253  A    between atoms: _664  and  _665
REMARK  254  A    between atoms: _664  and  _667
REMARK  255  A    between atoms: _667  and  _668
REMARK  256  A    between atoms: _673  and  _675
REMARK  257  A    between atoms: _675  and  _676
REMARK  258  A    between atoms: _675  and  _678
REMARK  259  A    between atoms: _678  and  _679
REMARK  260  A    between atoms: _681  and  _683
REMARK  261  A    between atoms: _683  and  _684
REMARK  262  A    between atoms: _683  and  _686
REMARK  263  A    between atoms: _686  and  _687
REMARK  264  A    between atoms: _689  and  _691
REMARK  265  A    between atoms: _691  and  _692
REMARK  266  A    between atoms: _691  and  _694
REMARK  267  A    between atoms: _698  and  _699
REMARK  268  A    between atoms: _704  and  _706
REMARK  269  A    between atoms: _706  and  _707
REMARK  270  A    between atoms: _706  and  _709
REMARK  271  A    between atoms: _709  and  _710
REMARK  272  A    between atoms: _715  and  _716
REMARK  273  A    between atoms: _718  and  _720
REMARK  274  A    between atoms: _720  and  _721
REMARK  275  A    between atoms: _720  and  _723
REMARK  276  A    between atoms: _723  and  _724
REMARK  277  A    between atoms: _724  and  _725
REMARK  278  A    between atoms: _725  and  _726
REMARK  279  A    between atoms: _735  and  _737
REMARK  280  A    between atoms: _737  and  _738
REMARK  281  A    between atoms: _737  and  _740
REMARK  282  A    between atoms: _740  and  _741
REMARK  283  A    between atoms: _746  and  _747
REMARK  284  A    between atoms: _749  and  _751
REMARK  285  A    between atoms: _751  and  _752
REMARK  286  A    between atoms: _751  and  _754
REMARK  287  A    between atoms: _754  and  _755
REMARK  288  A    between atoms: _761  and  _763
REMARK  289  A    between atoms: _763  and  _764
REMARK  290  A    between atoms: _763  and  _766
REMARK  291  A    between atoms: _766  and  _767
REMARK  292  A    between atoms: _769  and  _771
REMARK  293  A    between atoms: _771  and  _772
REMARK  294  A    between atoms: _771  and  _774
REMARK  295  A    between atoms: _774  and  _775
REMARK  296  A    between atoms: _781  and  _783
REMARK  297  A    between atoms: _783  and  _784
REMARK  298  A    between atoms: _783  and  _786
REMARK  299  A    between atoms: _786  and  _787
REMARK  300  A    between atoms: _787  and  _788
REMARK                            x       y       z     vdW  Elec       q    Type
REMARK                         _______ _______ _______ _____ _____    ______ ____
ROOT
ATOM      1  O   HOH     1      12.161 -13.478 -27.135  0.00  0.00    +0.000 OA
ENDROOT
TORSDOF 0
REMARK  Name = ../refined-set-2016/4ca5/4ca5_pocket.pdb
REMARK  300 active torsions:
REMARK  status: ('A' for Active; 'I' for Inactive)
REMARK    1  A    between atoms: _1  and  _3
REMARK    2  A    between atoms: _3  and  _4
REMARK    3  A    between atoms: _3  and  _6
REMARK    4  A    between atoms: _6  and  _7
REMARK    5  A    between atoms: _12  and  _14
REMARK    6  A    between atoms: _14  and  _15
REMARK    7  A    between atoms: _14  and  _17
REMARK    8  A    between atoms: _17  and  _18
REMARK    9  A    between atoms: _23  and  _25
REMARK   10  A    between atoms: _25  and  _26
REMARK   11  A    between atoms: _25  and  _28
REMARK   12  A    between atoms: _28  and  _29
REMARK   13  A    between atoms: _29  and  _30
REMARK   14  A    between atoms: _33  and  _35
REMARK   15  A    between atoms: _35  and  _36
REMARK   16  A    between atoms: _35  and  _38
REMARK   17  A    between atoms: _38  and  _39
REMARK   18  A    between atoms: _44  and  _45
REMARK   19  A    between atoms: _47  and  _49
REMARK   20  A    between atoms: _49  and  _50
REMARK   21  A    between atoms: _49  and  _52
REMARK   22  A    between atoms: _52  and  _53
REMARK   23  A    between atoms: _53  and  _54
REMARK   24  A    between atoms: _57  and  _59
REMARK   25  A    between atoms: _59  and  _60
REMARK   26  A    between atoms: _59  and  _62
REMARK   27  A    between atoms: _62  and  _63
REMARK   28  A    between atoms: _66  and  _68
REMARK   29  A    between atoms: _68  and  _69
REMARK   30  A    between atoms: _71  and  _73
REMARK   31  A    between atoms: _73  and  _74
REMARK   32  A    between atoms: _73  and  _76
REMARK   33  A    between atoms: _76  and  _77
REMARK   34  A    between atoms: _82  and  _84
REMARK   35  A    between atoms: _84  and  _85
REMARK   36  A    between atoms: _84  and  _87
REMARK   37  A    between atoms: _87  and  _88
REMARK   38  A    between atoms: _88  and  _89
REMARK   39  A    between atoms: _91  and  _93
REMARK   40  A    between atoms: _93  and  _94
REMARK   41  A    between atoms: _93  and  _96
REMARK   42  A    between atoms: _96  and  _97
REMARK   43  A    between atoms: _107  and  _109
REMARK   44  A    between atoms: _109  and  _110
REMARK   45  A    between atoms: _109  and  _112
REMARK   46  A    between atoms: _112  and  _113
REMARK   47  A    between atoms: _113  and  _114
REMARK   48  A    between atoms: _119  and  _121
REMARK   49  A    between atoms: _121  and  _122
REMARK   50  A    between atoms: _121  and  _124
REMARK   51  A    between atoms: _124  and  _125
REMARK   52  A    between atoms: _128  and  _130
REMARK   53  A    between atoms: _130  and  _131
REMARK   54  A    between atoms: _130  and  _133
REMARK   55  A    between atoms: _133  and  _134
REMARK   56  A    between atoms: _144  and  _146
REMARK   57  A    between atoms: _146  and  _147
REMARK   58  A    between atoms: _146  and  _149
REMARK   59  A    between atoms: _149  and  _150
REMARK   60  A    between atoms: _152  and  _154
REMARK   61  A    between atoms: _154  and  _155
REMARK   62  A    between atoms: _154  and  _157
REMARK   63  A    between atoms: _157  and  _158
REMARK   64  A    between atoms: _163  and  _165
REMARK   65  A    between atoms: _165  and  _166
REMARK   66  A    between atoms: _165  and  _168
REMARK   67  A    between atoms: _171  and  _173
REMARK   68  A    between atoms: _173  and  _174
REMARK   69  A    between atoms: _173  and  _176
REMARK   70  A    between atoms: _178  and  _180
REMARK   71  A    between atoms: _180  and  _181
REMARK   72  A    between atoms: _180  and  _183
REMARK   73  A    between atoms: _183  and  _184
REMARK   74  A    between atoms: _189  and  _191
REMARK   75  A    between atoms: _191  and  _192
REMARK   76  A    between atoms: _195  and  _197
REMARK   77  A    between atoms: _197  and  _198
REMARK   78  A    between atoms: _197  and  _200
REMARK   79  A    between atoms: _200  and  _201
REMARK   80  A    between atoms: _203  and  _205
REMARK   81  A    between atoms: _205  and  _206
REMARK   82  A    between atoms: _209  and  _211
REMARK   83  A    between atoms: _211  and  _212
REMARK   84  A    between atoms: _211  and  _214
REMARK   85  A    between atoms: _214  and  _215
REMARK   86  A    between atoms: _225  and  _227
REMARK   87  A    between atoms: _227  and  _228
REMARK   88  A    between atoms: _227  and  _230
REMARK   89  A    between atoms: _230  and  _231
REMARK   90  A    between atoms: _234  and  _236
REMARK   91  A    between atoms: _236  and  _237
REMARK   92  A    between atoms: _236  and  _239
REMARK   93  A    between atoms: _239  and  _240
REMARK   94  A    between atoms: _245  and  _246
REMARK   95  A    between atoms: _248  and  _250
REMARK   96  A    between atoms: _250  and  _251
REMARK   97  A    between atoms: _250  and  _253
REMARK   98  A    between atoms: _253  and  _254
REMARK   99  A    between atoms: _254  and  _255
REMARK  100  A    between atoms: _255  and  _256
REMARK  101  A    between atoms: _265  and  _267
REMARK  102  A    between atoms: _267  and  _268
REMARK  103  A    between atoms: _267  and  _270
REMARK  104  A    between atoms: _270  and  _271
REMARK  105  A    between atoms: _274  and  _276
REMARK  106  A    between atoms: _276  and  _277
REMARK  107  A    between atoms: _276  and  _279
REMARK  108  A    between atoms: _279  and  _280
REMARK  109  A    between atoms: _280  and  _281
REMARK  110  A    between atoms: _281  and  _282
REMARK  111  A    between atoms: _282  and  _283
REMARK  112  A    between atoms: _287  and  _289
REMARK  113  A    between atoms: _289  and  _290
REMARK  114  A    between atoms: _289  and  _292
REMARK  115  A    between atoms: _292  and  _293
REMARK  116  A    between atoms: _293  and  _294
REMARK  117  A    between atoms: _299  and  _301
REMARK  118  A    between atoms: _301  and  _302
REMARK  119  A    between atoms: _301  and  _304
REMARK  120  A    between atoms: _304  and  _305
REMARK  121  A    between atoms: _310  and  _312
REMARK  122  A    between atoms: _312  and  _313
REMARK  123  A    between atoms: _312  and  _315
REMARK  124  A    between atoms: _315  and  _316
REMARK  125  A    between atoms: _319  and  _321
REMARK  126  A    between atoms: _321  and  _322
REMARK  127  A    between atoms: _321  and  _324
REMARK  128  A    between atoms: _324  and  _325
REMARK  129  A    between atoms: _325  and  _326
REMARK  130  A    between atoms: _329  and  _331
REMARK  131  A    between atoms: _331  and  _332
REMARK  132  A    between atoms: _331  and  _334
REMARK  133  A    between atoms: _334  and  _335
REMARK  134  A    between atoms: _338  and  _340
REMARK  135  A    between atoms: _340  and  _341
REMARK  136  A    between atoms: _340  and  _343
REMARK  137  A    between atoms: _346  and  _348
REMARK  138  A    between atoms: _348  and  _349
REMARK  139  A    between atoms: _348  and  _351
REMARK  140  A    between atoms: _354  and  _356
REMARK  141  A    between atoms: _356  and  _357
REMARK  142  A    between atoms: _360  and  _362
REMARK  143  A    between atoms: _362  and  _363
REMARK  144  A    between atoms: _362  and  _365
REMARK  145  A    between atoms: _365  and  _366
REMARK  146  A    between atoms: _371  and  _373
REMARK  147  A    between atoms: _384  and  _387
REMARK  148  A    between atoms: _387  and  _388
REMARK  149  A    between atoms: _388  and  _389
REMARK  150  A    between atoms: _394  and  _397
REMARK  151  A    between atoms: _397  and  _398
REMARK  152  A    between atoms: _398  and  _399
REMARK  153  A    between atoms: _408  and  _409
REMARK  154  A    between atoms: _417  and  _419
REMARK  155  A    between atoms: _419  and  _420
REMARK  156  A    between atoms: _419  and  _422
REMARK  157  A    between atoms: _422  and  _423
REMARK  158  A    between atoms: _426  and  _428
REMARK  159  A    between atoms: _428  and  _429
REMARK  160  A    between atoms: _428  and  _431
REMARK  161  A    between atoms: _431  and  _432
REMARK  162  A    between atoms: _437  and  _438
REMARK  163  A    between atoms: _440  and  _442
REMARK  164  A    between atoms: _442  and  _443
REMARK  165  A    between atoms: _442  and  _445
REMARK  166  A    between atoms: _445  and  _446
REMARK  167  A    between atoms: _452  and  _454
REMARK  168  A    between atoms: _454  and  _455
REMARK  169  A    between atoms: _454  and  _457
REMARK  170  A    between atoms: _457  and  _458
REMARK  171  A    between atoms: _463  and  _464
REMARK  172  A    between atoms: _466  and  _468
REMARK  173  A    between atoms: _468  and  _469
REMARK  174  A    between atoms: _468  and  _471
REMARK  175  A    between atoms: _471  and  _472
REMARK  176  A    between atoms: _472  and  _473
REMARK  177  A    between atoms: _473  and  _474
REMARK  178  A    between atoms: _483  and  _485
REMARK  179  A    between atoms: _485  and  _486
REMARK  180  A    between atoms: _485  and  _488
REMARK  181  A    between atoms: _488  and  _489
REMARK  182  A    between atoms: _489  and  _490
REMARK  183  A    between atoms: _493  and  _495
REMARK  184  A    between atoms: _495  and  _496
REMARK  185  A    between atoms: _498  and  _500
REMARK  186  A    between atoms: _500  and  _501
REMARK  187  A    between atoms: _500  and  _503
REMARK  188  A    between atoms: _503  and  _504
REMARK  189  A    between atoms: _510  and  _511
REMARK  190  A    between atoms: _516  and  _518
REMARK  191  A    between atoms: _518  and  _519
REMARK  192  A    between atoms: _521  and  _523
REMARK  193  A    between atoms: _523  and  _524
REMARK  194  A    between atoms: _523  and  _526
REMARK  195  A    between atoms: _526  and  _527
REMARK  196  A    between atoms: _533  and  _535
REMARK  197  A    between atoms: _535  and  _536
REMARK  198  A    between atoms: _535  and  _538
REMARK  199  A    between atoms: _538  and  _539
REMARK  200  A    between atoms: _544  and  _546
REMARK  201  A    between atoms: _546  and  _547
REMARK  202  A    between atoms: _546  and  _549
REMARK  203  A    between atoms: _549  and  _550
REMARK  204  A    between atoms: _550  and  _551
REMARK  205  A    between atoms: _551  and  _552
REMARK  206  A    between atoms: _552  and  ZN_793
REMARK  207  A    between atoms: _554  and  _556
REMARK  208  A    between atoms: _556  and  _557
REMARK  209  A    between atoms: _560  and  _562
REMARK  210  A    between atoms: _562  and  _563
REMARK  211  A    between atoms: _562  and  _565
REMARK  212  A    between atoms: _565  and  _566
REMARK  213  A    between atoms: _569  and  _571
REMARK  214  A    between atoms: _571  and  _572
REMARK  215  A    between atoms: _575  and  _577
REMARK  216  A    between atoms: _577  and  _578
REMARK  217  A    between atoms: _577  and  _580
REMARK  218  A    between atoms: _580  and  _581
REMARK  219  A    between atoms: _584  and  _586
REMARK  220  A    between atoms: _586  and  _587
REMARK  221  A    between atoms: _586  and  _589
REMARK  222  A    between atoms: _589  and  _590
REMARK  223  A    between atoms: _590  and  _591
REMARK  224  A    between atoms: _591  and  _592
REMARK  225  A    between atoms: _592  and  _593
REMARK  226  A    between atoms: _597  and  _599
REMARK  227  A    between atoms: _599  and  _600
REMARK  228  A    between atoms: _599  and  _602
REMARK  229  A    between atoms: _602  and  _603
REMARK  230  A    between atoms: _609  and  _611
REMARK  231  A    between atoms: _611  and  _612
REMARK  232  A    between atoms: _611  and  _614
REMARK  233  A    between atoms: _614  and  _615
REMARK  234  A    between atoms: _621  and  _623
REMARK  235  A    between atoms: _623  and  _624
REMARK  236  A    between atoms: _623  and  _626
REMARK  237  A    between atoms: _626  and  _627
REMARK  238  A    between atoms: _629  and  _631
REMARK  239  A    between atoms: _631  and  _632
REMARK  240  A    between atoms: _631  and  _634
REMARK  241  A    between atoms: _637  and  _639
REMARK  242  A    between atoms: _639  and  _640
REMARK  243  A    between atoms: _639  and  _642
REMARK  244  A    between atoms: _642  and  _643
REMARK  245  A    between atoms: _643  and  _644
REMARK  246  A    between atoms: _644  and  _645
REMARK  247  A    between atoms: _645  and  _646
REMARK  248  A    between atoms: _650  and  _652
REMARK  249  A    between atoms: _652  and  _653
REMARK  250  A    between atoms: _652  and  _655
REMARK  251  A    between atoms: _655  and  _656
REMARK  252  A    between atoms: _662  and  _664
REMARK  253  A    between atoms: _664  and  _665
REMARK  254  A    between atoms: _664  and  _667
REMARK  255  A    between atoms: _667  and  _668
REMARK  256  A    between atoms: _673  and  _675
REMARK  257  A    between atoms: _675  and  _676
REMARK  258  A    between atoms: _675  and  _678
REMARK  259  A    between atoms: _678  and  _679
REMARK  260  A    between atoms: _681  and  _683
REMARK  261  A    between atoms: _683  and  _684
REMARK  262  A    between atoms: _683  and  _686
REMARK  263  A    between atoms: _686  and  _687
REMARK  264  A    between atoms: _689  and  _691
REMARK  265  A    between atoms: _691  and  _692
REMARK  266  A    between atoms: _691  and  _694
REMARK  267  A    between atoms: _698  and  _699
REMARK  268  A    between atoms: _704  and  _706
REMARK  269  A    between atoms: _706  and  _707
REMARK  270  A    between atoms: _706  and  _709
REMARK  271  A    between atoms: _709  and  _710
REMARK  272  A    between atoms: _715  and  _716
REMARK  273  A    between atoms: _718  and  _720
REMARK  274  A    between atoms: _720  and  _721
REMARK  275  A    between atoms: _720  and  _723
REMARK  276  A    between atoms: _723  and  _724
REMARK  277  A    between atoms: _724  and  _725
REMARK  278  A    between atoms: _725  and  _726
REMARK  279  A    between atoms: _735  and  _737
REMARK  280  A    between atoms: _737  and  _738
REMARK  281  A    between atoms: _737  and  _740
REMARK  282  A    between atoms: _740  and  _741
REMARK  283  A    between atoms: _746  and  _747
REMARK  284  A    between atoms: _749  and  _751
REMARK  285  A    between atoms: _751  and  _752
REMARK  286  A    between atoms: _751  and  _754
REMARK  287  A    between atoms: _754  and  _755
REMARK  288  A    between atoms: _761  and  _763
REMARK  289  A    between atoms: _763  and  _764
REMARK  290  A    between atoms: _763  and  _766
REMARK  291  A    between atoms: _766  and  _767
REMARK  292  A    between atoms: _769  and  _771
REMARK  293  A    between atoms: _771  and  _772
REMARK  294  A    between atoms: _771  and  _774
REMARK  295  A    between atoms: _774  and  _775
REMARK  296  A    between atoms: _781  and  _783
REMARK  297  A    between atoms: _783  and  _784
REMARK  298  A    between atoms: _783  and  _786
REMARK  299  A    between atoms: _786  and  _787
REMARK  300  A    between atoms: _787  and  _788
REMARK                            x       y       z     vdW  Elec       q    Type
REMARK                         _______ _______ _______ _____ _____    ______ ____
ROOT
ATOM      1  O   HOH     1      14.666 -15.759 -30.319  0.00  0.00    +0.000 OA
ENDROOT
TORSDOF 0
REMARK  Name = ../refined-set-2016/4ca5/4ca5_pocket.pdb
REMARK  300 active torsions:
REMARK  status: ('A' for Active; 'I' for Inactive)
REMARK    1  A    between atoms: _1  and  _3
REMARK    2  A    between atoms: _3  and  _4
REMARK    3  A    between atoms: _3  and  _6
REMARK    4  A    between atoms: _6  and  _7
REMARK    5  A    between atoms: _12  and  _14
REMARK    6  A    between atoms: _14  and  _15
REMARK    7  A    between atoms: _14  and  _17
REMARK    8  A    between atoms: _17  and  _18
REMARK    9  A    between atoms: _23  and  _25
REMARK   10  A    between atoms: _25  and  _26
REMARK   11  A    between atoms: _25  and  _28
REMARK   12  A    between atoms: _28  and  _29
REMARK   13  A    between atoms: _29  and  _30
REMARK   14  A    between atoms: _33  and  _35
REMARK   15  A    between atoms: _35  and  _36
REMARK   16  A    between atoms: _35  and  _38
REMARK   17  A    between atoms: _38  and  _39
REMARK   18  A    between atoms: _44  and  _45
REMARK   19  A    between atoms: _47  and  _49
REMARK   20  A    between atoms: _49  and  _50
REMARK   21  A    between atoms: _49  and  _52
REMARK   22  A    between atoms: _52  and  _53
REMARK   23  A    between atoms: _53  and  _54
REMARK   24  A    between atoms: _57  and  _59
REMARK   25  A    between atoms: _59  and  _60
REMARK   26  A    between atoms: _59  and  _62
REMARK   27  A    between atoms: _62  and  _63
REMARK   28  A    between atoms: _66  and  _68
REMARK   29  A    between atoms: _68  and  _69
REMARK   30  A    between atoms: _71  and  _73
REMARK   31  A    between atoms: _73  and  _74
REMARK   32  A    between atoms: _73  and  _76
REMARK   33  A    between atoms: _76  and  _77
REMARK   34  A    between atoms: _82  and  _84
REMARK   35  A    between atoms: _84  and  _85
REMARK   36  A    between atoms: _84  and  _87
REMARK   37  A    between atoms: _87  and  _88
REMARK   38  A    between atoms: _88  and  _89
REMARK   39  A    between atoms: _91  and  _93
REMARK   40  A    between atoms: _93  and  _94
REMARK   41  A    between atoms: _93  and  _96
REMARK   42  A    between atoms: _96  and  _97
REMARK   43  A    between atoms: _107  and  _109
REMARK   44  A    between atoms: _109  and  _110
REMARK   45  A    between atoms: _109  and  _112
REMARK   46  A    between atoms: _112  and  _113
REMARK   47  A    between atoms: _113  and  _114
REMARK   48  A    between atoms: _119  and  _121
REMARK   49  A    between atoms: _121  and  _122
REMARK   50  A    between atoms: _121  and  _124
REMARK   51  A    between atoms: _124  and  _125
REMARK   52  A    between atoms: _128  and  _130
REMARK   53  A    between atoms: _130  and  _131
REMARK   54  A    between atoms: _130  and  _133
REMARK   55  A    between atoms: _133  and  _134
REMARK   56  A    between atoms: _144  and  _146
REMARK   57  A    between atoms: _146  and  _147
REMARK   58  A    between atoms: _146  and  _149
REMARK   59  A    between atoms: _149  and  _150
REMARK   60  A    between atoms: _152  and  _154
REMARK   61  A    between atoms: _154  and  _155
REMARK   62  A    between atoms: _154  and  _157
REMARK   63  A    between atoms: _157  and  _158
REMARK   64  A    between atoms: _163  and  _165
REMARK   65  A    between atoms: _165  and  _166
REMARK   66  A    between atoms: _165  and  _168
REMARK   67  A    between atoms: _171  and  _173
REMARK   68  A    between atoms: _173  and  _174
REMARK   69  A    between atoms: _173  and  _176
REMARK   70  A    between atoms: _178  and  _180
REMARK   71  A    between atoms: _180  and  _181
REMARK   72  A    between atoms: _180  and  _183
REMARK   73  A    between atoms: _183  and  _184
REMARK   74  A    between atoms: _189  and  _191
REMARK   75  A    between atoms: _191  and  _192
REMARK   76  A    between atoms: _195  and  _197
REMARK   77  A    between atoms: _197  and  _198
REMARK   78  A    between atoms: _197  and  _200
REMARK   79  A    between atoms: _200  and  _201
REMARK   80  A    between atoms: _203  and  _205
REMARK   81  A    between atoms: _205  and  _206
REMARK   82  A    between atoms: _209  and  _211
REMARK   83  A    between atoms: _211  and  _212
REMARK   84  A    between atoms: _211  and  _214
REMARK   85  A    between atoms: _214  and  _215
REMARK   86  A    between atoms: _225  and  _227
REMARK   87  A    between atoms: _227  and  _228
REMARK   88  A    between atoms: _227  and  _230
REMARK   89  A    between atoms: _230  and  _231
REMARK   90  A    between atoms: _234  and  _236
REMARK   91  A    between atoms: _236  and  _237
REMARK   92  A    between atoms: _236  and  _239
REMARK   93  A    between atoms: _239  and  _240
REMARK   94  A    between atoms: _245  and  _246
REMARK   95  A    between atoms: _248  and  _250
REMARK   96  A    between atoms: _250  and  _251
REMARK   97  A    between atoms: _250  and  _253
REMARK   98  A    between atoms: _253  and  _254
REMARK   99  A    between atoms: _254  and  _255
REMARK  100  A    between atoms: _255  and  _256
REMARK  101  A    between atoms: _265  and  _267
REMARK  102  A    between atoms: _267  and  _268
REMARK  103  A    between atoms: _267  and  _270
REMARK  104  A    between atoms: _270  and  _271
REMARK  105  A    between atoms: _274  and  _276
REMARK  106  A    between atoms: _276  and  _277
REMARK  107  A    between atoms: _276  and  _279
REMARK  108  A    between atoms: _279  and  _280
REMARK  109  A    between atoms: _280  and  _281
REMARK  110  A    between atoms: _281  and  _282
REMARK  111  A    between atoms: _282  and  _283
REMARK  112  A    between atoms: _287  and  _289
REMARK  113  A    between atoms: _289  and  _290
REMARK  114  A    between atoms: _289  and  _292
REMARK  115  A    between atoms: _292  and  _293
REMARK  116  A    between atoms: _293  and  _294
REMARK  117  A    between atoms: _299  and  _301
REMARK  118  A    between atoms: _301  and  _302
REMARK  119  A    between atoms: _301  and  _304
REMARK  120  A    between atoms: _304  and  _305
REMARK  121  A    between atoms: _310  and  _312
REMARK  122  A    between atoms: _312  and  _313
REMARK  123  A    between atoms: _312  and  _315
REMARK  124  A    between atoms: _315  and  _316
REMARK  125  A    between atoms: _319  and  _321
REMARK  126  A    between atoms: _321  and  _322
REMARK  127  A    between atoms: _321  and  _324
REMARK  128  A    between atoms: _324  and  _325
REMARK  129  A    between atoms: _325  and  _326
REMARK  130  A    between atoms: _329  and  _331
REMARK  131  A    between atoms: _331  and  _332
REMARK  132  A    between atoms: _331  and  _334
REMARK  133  A    between atoms: _334  and  _335
REMARK  134  A    between atoms: _338  and  _340
REMARK  135  A    between atoms: _340  and  _341
REMARK  136  A    between atoms: _340  and  _343
REMARK  137  A    between atoms: _346  and  _348
REMARK  138  A    between atoms: _348  and  _349
REMARK  139  A    between atoms: _348  and  _351
REMARK  140  A    between atoms: _354  and  _356
REMARK  141  A    between atoms: _356  and  _357
REMARK  142  A    between atoms: _360  and  _362
REMARK  143  A    between atoms: _362  and  _363
REMARK  144  A    between atoms: _362  and  _365
REMARK  145  A    between atoms: _365  and  _366
REMARK  146  A    between atoms: _371  and  _373
REMARK  147  A    between atoms: _384  and  _387
REMARK  148  A    between atoms: _387  and  _388
REMARK  149  A    between atoms: _388  and  _389
REMARK  150  A    between atoms: _394  and  _397
REMARK  151  A    between atoms: _397  and  _398
REMARK  152  A    between atoms: _398  and  _399
REMARK  153  A    between atoms: _408  and  _409
REMARK  154  A    between atoms: _417  and  _419
REMARK  155  A    between atoms: _419  and  _420
REMARK  156  A    between atoms: _419  and  _422
REMARK  157  A    between atoms: _422  and  _423
REMARK  158  A    between atoms: _426  and  _428
REMARK  159  A    between atoms: _428  and  _429
REMARK  160  A    between atoms: _428  and  _431
REMARK  161  A    between atoms: _431  and  _432
REMARK  162  A    between atoms: _437  and  _438
REMARK  163  A    between atoms: _440  and  _442
REMARK  164  A    between atoms: _442  and  _443
REMARK  165  A    between atoms: _442  and  _445
REMARK  166  A    between atoms: _445  and  _446
REMARK  167  A    between atoms: _452  and  _454
REMARK  168  A    between atoms: _454  and  _455
REMARK  169  A    between atoms: _454  and  _457
REMARK  170  A    between atoms: _457  and  _458
REMARK  171  A    between atoms: _463  and  _464
REMARK  172  A    between atoms: _466  and  _468
REMARK  173  A    between atoms: _468  and  _469
REMARK  174  A    between atoms: _468  and  _471
REMARK  175  A    between atoms: _471  and  _472
REMARK  176  A    between atoms: _472  and  _473
REMARK  177  A    between atoms: _473  and  _474
REMARK  178  A    between atoms: _483  and  _485
REMARK  179  A    between atoms: _485  and  _486
REMARK  180  A    between atoms: _485  and  _488
REMARK  181  A    between atoms: _488  and  _489
REMARK  182  A    between atoms: _489  and  _490
REMARK  183  A    between atoms: _493  and  _495
REMARK  184  A    between atoms: _495  and  _496
REMARK  185  A    between atoms: _498  and  _500
REMARK  186  A    between atoms: _500  and  _501
REMARK  187  A    between atoms: _500  and  _503
REMARK  188  A    between atoms: _503  and  _504
REMARK  189  A    between atoms: _510  and  _511
REMARK  190  A    between atoms: _516  and  _518
REMARK  191  A    between atoms: _518  and  _519
REMARK  192  A    between atoms: _521  and  _523
REMARK  193  A    between atoms: _523  and  _524
REMARK  194  A    between atoms: _523  and  _526
REMARK  195  A    between atoms: _526  and  _527
REMARK  196  A    between atoms: _533  and  _535
REMARK  197  A    between atoms: _535  and  _536
REMARK  198  A    between atoms: _535  and  _538
REMARK  199  A    between atoms: _538  and  _539
REMARK  200  A    between atoms: _544  and  _546
REMARK  201  A    between atoms: _546  and  _547
REMARK  202  A    between atoms: _546  and  _549
REMARK  203  A    between atoms: _549  and  _550
REMARK  204  A    between atoms: _550  and  _551
REMARK  205  A    between atoms: _551  and  _552
REMARK  206  A    between atoms: _552  and  ZN_793
REMARK  207  A    between atoms: _554  and  _556
REMARK  208  A    between atoms: _556  and  _557
REMARK  209  A    between atoms: _560  and  _562
REMARK  210  A    between atoms: _562  and  _563
REMARK  211  A    between atoms: _562  and  _565
REMARK  212  A    between atoms: _565  and  _566
REMARK  213  A    between atoms: _569  and  _571
REMARK  214  A    between atoms: _571  and  _572
REMARK  215  A    between atoms: _575  and  _577
REMARK  216  A    between atoms: _577  and  _578
REMARK  217  A    between atoms: _577  and  _580
REMARK  218  A    between atoms: _580  and  _581
REMARK  219  A    between atoms: _584  and  _586
REMARK  220  A    between atoms: _586  and  _587
REMARK  221  A    between atoms: _586  and  _589
REMARK  222  A    between atoms: _589  and  _590
REMARK  223  A    between atoms: _590  and  _591
REMARK  224  A    between atoms: _591  and  _592
REMARK  225  A    between atoms: _592  and  _593
REMARK  226  A    between atoms: _597  and  _599
REMARK  227  A    between atoms: _599  and  _600
REMARK  228  A    between atoms: _599  and  _602
REMARK  229  A    between atoms: _602  and  _603
REMARK  230  A    between atoms: _609  and  _611
REMARK  231  A    between atoms: _611  and  _612
REMARK  232  A    between atoms: _611  and  _614
REMARK  233  A    between atoms: _614  and  _615
REMARK  234  A    between atoms: _621  and  _623
REMARK  235  A    between atoms: _623  and  _624
REMARK  236  A    between atoms: _623  and  _626
REMARK  237  A    between atoms: _626  and  _627
REMARK  238  A    between atoms: _629  and  _631
REMARK  239  A    between atoms: _631  and  _632
REMARK  240  A    between atoms: _631  and  _634
REMARK  241  A    between atoms: _637  and  _639
REMARK  242  A    between atoms: _639  and  _640
REMARK  243  A    between atoms: _639  and  _642
REMARK  244  A    between atoms: _642  and  _643
REMARK  245  A    between atoms: _643  and  _644
REMARK  246  A    between atoms: _644  and  _645
REMARK  247  A    between atoms: _645  and  _646
REMARK  248  A    between atoms: _650  and  _652
REMARK  249  A    between atoms: _652  and  _653
REMARK  250  A    between atoms: _652  and  _655
REMARK  251  A    between atoms: _655  and  _656
REMARK  252  A    between atoms: _662  and  _664
REMARK  253  A    between atoms: _664  and  _665
REMARK  254  A    between atoms: _664  and  _667
REMARK  255  A    between atoms: _667  and  _668
REMARK  256  A    between atoms: _673  and  _675
REMARK  257  A    between atoms: _675  and  _676
REMARK  258  A    between atoms: _675  and  _678
REMARK  259  A    between atoms: _678  and  _679
REMARK  260  A    between atoms: _681  and  _683
REMARK  261  A    between atoms: _683  and  _684
REMARK  262  A    between atoms: _683  and  _686
REMARK  263  A    between atoms: _686  and  _687
REMARK  264  A    between atoms: _689  and  _691
REMARK  265  A    between atoms: _691  and  _692
REMARK  266  A    between atoms: _691  and  _694
REMARK  267  A    between atoms: _698  and  _699
REMARK  268  A    between atoms: _704  and  _706
REMARK  269  A    between atoms: _706  and  _707
REMARK  270  A    between atoms: _706  and  _709
REMARK  271  A    between atoms: _709  and  _710
REMARK  272  A    between atoms: _715  and  _716
REMARK  273  A    between atoms: _718  and  _720
REMARK  274  A    between atoms: _720  and  _721
REMARK  275  A    between atoms: _720  and  _723
REMARK  276  A    between atoms: _723  and  _724
REMARK  277  A    between atoms: _724  and  _725
REMARK  278  A    between atoms: _725  and  _726
REMARK  279  A    between atoms: _735  and  _737
REMARK  280  A    between atoms: _737  and  _738
REMARK  281  A    between atoms: _737  and  _740
REMARK  282  A    between atoms: _740  and  _741
REMARK  283  A    between atoms: _746  and  _747
REMARK  284  A    between atoms: _749  and  _751
REMARK  285  A    between atoms: _751  and  _752
REMARK  286  A    between atoms: _751  and  _754
REMARK  287  A    between atoms: _754  and  _755
REMARK  288  A    between atoms: _761  and  _763
REMARK  289  A    between atoms: _763  and  _764
REMARK  290  A    between atoms: _763  and  _766
REMARK  291  A    between atoms: _766  and  _767
REMARK  292  A    between atoms: _769  and  _771
REMARK  293  A    between atoms: _771  and  _772
REMARK  294  A    between atoms: _771  and  _774
REMARK  295  A    between atoms: _774  and  _775
REMARK  296  A    between atoms: _781  and  _783
REMARK  297  A    between atoms: _783  and  _784
REMARK  298  A    between atoms: _783  and  _786
REMARK  299  A    between atoms: _786  and  _787
REMARK  300  A    between atoms: _787  and  _788
REMARK                            x       y       z     vdW  Elec       q    Type
REMARK                         _______ _______ _______ _____ _____    ______ ____
ROOT
ATOM      1  O   HOH     1      11.041 -18.149 -27.949  0.00  0.00    +0.000 OA
ENDROOT
TORSDOF 0
REMARK  Name = ../refined-set-2016/4ca5/4ca5_pocket.pdb
REMARK  300 active torsions:
REMARK  status: ('A' for Active; 'I' for Inactive)
REMARK    1  A    between atoms: _1  and  _3
REMARK    2  A    between atoms: _3  and  _4
REMARK    3  A    between atoms: _3  and  _6
REMARK    4  A    between atoms: _6  and  _7
REMARK    5  A    between atoms: _12  and  _14
REMARK    6  A    between atoms: _14  and  _15
REMARK    7  A    between atoms: _14  and  _17
REMARK    8  A    between atoms: _17  and  _18
REMARK    9  A    between atoms: _23  and  _25
REMARK   10  A    between atoms: _25  and  _26
REMARK   11  A    between atoms: _25  and  _28
REMARK   12  A    between atoms: _28  and  _29
REMARK   13  A    between atoms: _29  and  _30
REMARK   14  A    between atoms: _33  and  _35
REMARK   15  A    between atoms: _35  and  _36
REMARK   16  A    between atoms: _35  and  _38
REMARK   17  A    between atoms: _38  and  _39
REMARK   18  A    between atoms: _44  and  _45
REMARK   19  A    between atoms: _47  and  _49
REMARK   20  A    between atoms: _49  and  _50
REMARK   21  A    between atoms: _49  and  _52
REMARK   22  A    between atoms: _52  and  _53
REMARK   23  A    between atoms: _53  and  _54
REMARK   24  A    between atoms: _57  and  _59
REMARK   25  A    between atoms: _59  and  _60
REMARK   26  A    between atoms: _59  and  _62
REMARK   27  A    between atoms: _62  and  _63
REMARK   28  A    between atoms: _66  and  _68
REMARK   29  A    between atoms: _68  and  _69
REMARK   30  A    between atoms: _71  and  _73
REMARK   31  A    between atoms: _73  and  _74
REMARK   32  A    between atoms: _73  and  _76
REMARK   33  A    between atoms: _76  and  _77
REMARK   34  A    between atoms: _82  and  _84
REMARK   35  A    between atoms: _84  and  _85
REMARK   36  A    between atoms: _84  and  _87
REMARK   37  A    between atoms: _87  and  _88
REMARK   38  A    between atoms: _88  and  _89
REMARK   39  A    between atoms: _91  and  _93
REMARK   40  A    between atoms: _93  and  _94
REMARK   41  A    between atoms: _93  and  _96
REMARK   42  A    between atoms: _96  and  _97
REMARK   43  A    between atoms: _107  and  _109
REMARK   44  A    between atoms: _109  and  _110
REMARK   45  A    between atoms: _109  and  _112
REMARK   46  A    between atoms: _112  and  _113
REMARK   47  A    between atoms: _113  and  _114
REMARK   48  A    between atoms: _119  and  _121
REMARK   49  A    between atoms: _121  and  _122
REMARK   50  A    between atoms: _121  and  _124
REMARK   51  A    between atoms: _124  and  _125
REMARK   52  A    between atoms: _128  and  _130
REMARK   53  A    between atoms: _130  and  _131
REMARK   54  A    between atoms: _130  and  _133
REMARK   55  A    between atoms: _133  and  _134
REMARK   56  A    between atoms: _144  and  _146
REMARK   57  A    between atoms: _146  and  _147
REMARK   58  A    between atoms: _146  and  _149
REMARK   59  A    between atoms: _149  and  _150
REMARK   60  A    between atoms: _152  and  _154
REMARK   61  A    between atoms: _154  and  _155
REMARK   62  A    between atoms: _154  and  _157
REMARK   63  A    between atoms: _157  and  _158
REMARK   64  A    between atoms: _163  and  _165
REMARK   65  A    between atoms: _165  and  _166
REMARK   66  A    between atoms: _165  and  _168
REMARK   67  A    between atoms: _171  and  _173
REMARK   68  A    between atoms: _173  and  _174
REMARK   69  A    between atoms: _173  and  _176
REMARK   70  A    between atoms: _178  and  _180
REMARK   71  A    between atoms: _180  and  _181
REMARK   72  A    between atoms: _180  and  _183
REMARK   73  A    between atoms: _183  and  _184
REMARK   74  A    between atoms: _189  and  _191
REMARK   75  A    between atoms: _191  and  _192
REMARK   76  A    between atoms: _195  and  _197
REMARK   77  A    between atoms: _197  and  _198
REMARK   78  A    between atoms: _197  and  _200
REMARK   79  A    between atoms: _200  and  _201
REMARK   80  A    between atoms: _203  and  _205
REMARK   81  A    between atoms: _205  and  _206
REMARK   82  A    between atoms: _209  and  _211
REMARK   83  A    between atoms: _211  and  _212
REMARK   84  A    between atoms: _211  and  _214
REMARK   85  A    between atoms: _214  and  _215
REMARK   86  A    between atoms: _225  and  _227
REMARK   87  A    between atoms: _227  and  _228
REMARK   88  A    between atoms: _227  and  _230
REMARK   89  A    between atoms: _230  and  _231
REMARK   90  A    between atoms: _234  and  _236
REMARK   91  A    between atoms: _236  and  _237
REMARK   92  A    between atoms: _236  and  _239
REMARK   93  A    between atoms: _239  and  _240
REMARK   94  A    between atoms: _245  and  _246
REMARK   95  A    between atoms: _248  and  _250
REMARK   96  A    between atoms: _250  and  _251
REMARK   97  A    between atoms: _250  and  _253
REMARK   98  A    between atoms: _253  and  _254
REMARK   99  A    between atoms: _254  and  _255
REMARK  100  A    between atoms: _255  and  _256
REMARK  101  A    between atoms: _265  and  _267
REMARK  102  A    between atoms: _267  and  _268
REMARK  103  A    between atoms: _267  and  _270
REMARK  104  A    between atoms: _270  and  _271
REMARK  105  A    between atoms: _274  and  _276
REMARK  106  A    between atoms: _276  and  _277
REMARK  107  A    between atoms: _276  and  _279
REMARK  108  A    between atoms: _279  and  _280
REMARK  109  A    between atoms: _280  and  _281
REMARK  110  A    between atoms: _281  and  _282
REMARK  111  A    between atoms: _282  and  _283
REMARK  112  A    between atoms: _287  and  _289
REMARK  113  A    between atoms: _289  and  _290
REMARK  114  A    between atoms: _289  and  _292
REMARK  115  A    between atoms: _292  and  _293
REMARK  116  A    between atoms: _293  and  _294
REMARK  117  A    between atoms: _299  and  _301
REMARK  118  A    between atoms: _301  and  _302
REMARK  119  A    between atoms: _301  and  _304
REMARK  120  A    between atoms: _304  and  _305
REMARK  121  A    between atoms: _310  and  _312
REMARK  122  A    between atoms: _312  and  _313
REMARK  123  A    between atoms: _312  and  _315
REMARK  124  A    between atoms: _315  and  _316
REMARK  125  A    between atoms: _319  and  _321
REMARK  126  A    between atoms: _321  and  _322
REMARK  127  A    between atoms: _321  and  _324
REMARK  128  A    between atoms: _324  and  _325
REMARK  129  A    between atoms: _325  and  _326
REMARK  130  A    between atoms: _329  and  _331
REMARK  131  A    between atoms: _331  and  _332
REMARK  132  A    between atoms: _331  and  _334
REMARK  133  A    between atoms: _334  and  _335
REMARK  134  A    between atoms: _338  and  _340
REMARK  135  A    between atoms: _340  and  _341
REMARK  136  A    between atoms: _340  and  _343
REMARK  137  A    between atoms: _346  and  _348
REMARK  138  A    between atoms: _348  and  _349
REMARK  139  A    between atoms: _348  and  _351
REMARK  140  A    between atoms: _354  and  _356
REMARK  141  A    between atoms: _356  and  _357
REMARK  142  A    between atoms: _360  and  _362
REMARK  143  A    between atoms: _362  and  _363
REMARK  144  A    between atoms: _362  and  _365
REMARK  145  A    between atoms: _365  and  _366
REMARK  146  A    between atoms: _371  and  _373
REMARK  147  A    between atoms: _384  and  _387
REMARK  148  A    between atoms: _387  and  _388
REMARK  149  A    between atoms: _388  and  _389
REMARK  150  A    between atoms: _394  and  _397
REMARK  151  A    between atoms: _397  and  _398
REMARK  152  A    between atoms: _398  and  _399
REMARK  153  A    between atoms: _408  and  _409
REMARK  154  A    between atoms: _417  and  _419
REMARK  155  A    between atoms: _419  and  _420
REMARK  156  A    between atoms: _419  and  _422
REMARK  157  A    between atoms: _422  and  _423
REMARK  158  A    between atoms: _426  and  _428
REMARK  159  A    between atoms: _428  and  _429
REMARK  160  A    between atoms: _428  and  _431
REMARK  161  A    between atoms: _431  and  _432
REMARK  162  A    between atoms: _437  and  _438
REMARK  163  A    between atoms: _440  and  _442
REMARK  164  A    between atoms: _442  and  _443
REMARK  165  A    between atoms: _442  and  _445
REMARK  166  A    between atoms: _445  and  _446
REMARK  167  A    between atoms: _452  and  _454
REMARK  168  A    between atoms: _454  and  _455
REMARK  169  A    between atoms: _454  and  _457
REMARK  170  A    between atoms: _457  and  _458
REMARK  171  A    between atoms: _463  and  _464
REMARK  172  A    between atoms: _466  and  _468
REMARK  173  A    between atoms: _468  and  _469
REMARK  174  A    between atoms: _468  and  _471
REMARK  175  A    between atoms: _471  and  _472
REMARK  176  A    between atoms: _472  and  _473
REMARK  177  A    between atoms: _473  and  _474
REMARK  178  A    between atoms: _483  and  _485
REMARK  179  A    between atoms: _485  and  _486
REMARK  180  A    between atoms: _485  and  _488
REMARK  181  A    between atoms: _488  and  _489
REMARK  182  A    between atoms: _489  and  _490
REMARK  183  A    between atoms: _493  and  _495
REMARK  184  A    between atoms: _495  and  _496
REMARK  185  A    between atoms: _498  and  _500
REMARK  186  A    between atoms: _500  and  _501
REMARK  187  A    between atoms: _500  and  _503
REMARK  188  A    between atoms: _503  and  _504
REMARK  189  A    between atoms: _510  and  _511
REMARK  190  A    between atoms: _516  and  _518
REMARK  191  A    between atoms: _518  and  _519
REMARK  192  A    between atoms: _521  and  _523
REMARK  193  A    between atoms: _523  and  _524
REMARK  194  A    between atoms: _523  and  _526
REMARK  195  A    between atoms: _526  and  _527
REMARK  196  A    between atoms: _533  and  _535
REMARK  197  A    between atoms: _535  and  _536
REMARK  198  A    between atoms: _535  and  _538
REMARK  199  A    between atoms: _538  and  _539
REMARK  200  A    between atoms: _544  and  _546
REMARK  201  A    between atoms: _546  and  _547
REMARK  202  A    between atoms: _546  and  _549
REMARK  203  A    between atoms: _549  and  _550
REMARK  204  A    between atoms: _550  and  _551
REMARK  205  A    between atoms: _551  and  _552
REMARK  206  A    between atoms: _552  and  ZN_793
REMARK  207  A    between atoms: _554  and  _556
REMARK  208  A    between atoms: _556  and  _557
REMARK  209  A    between atoms: _560  and  _562
REMARK  210  A    between atoms: _562  and  _563
REMARK  211  A    between atoms: _562  and  _565
REMARK  212  A    between atoms: _565  and  _566
REMARK  213  A    between atoms: _569  and  _571
REMARK  214  A    between atoms: _571  and  _572
REMARK  215  A    between atoms: _575  and  _577
REMARK  216  A    between atoms: _577  and  _578
REMARK  217  A    between atoms: _577  and  _580
REMARK  218  A    between atoms: _580  and  _581
REMARK  219  A    between atoms: _584  and  _586
REMARK  220  A    between atoms: _586  and  _587
REMARK  221  A    between atoms: _586  and  _589
REMARK  222  A    between atoms: _589  and  _590
REMARK  223  A    between atoms: _590  and  _591
REMARK  224  A    between atoms: _591  and  _592
REMARK  225  A    between atoms: _592  and  _593
REMARK  226  A    between atoms: _597  and  _599
REMARK  227  A    between atoms: _599  and  _600
REMARK  228  A    between atoms: _599  and  _602
REMARK  229  A    between atoms: _602  and  _603
REMARK  230  A    between atoms: _609  and  _611
REMARK  231  A    between atoms: _611  and  _612
REMARK  232  A    between atoms: _611  and  _614
REMARK  233  A    between atoms: _614  and  _615
REMARK  234  A    between atoms: _621  and  _623
REMARK  235  A    between atoms: _623  and  _624
REMARK  236  A    between atoms: _623  and  _626
REMARK  237  A    between atoms: _626  and  _627
REMARK  238  A    between atoms: _629  and  _631
REMARK  239  A    between atoms: _631  and  _632
REMARK  240  A    between atoms: _631  and  _634
REMARK  241  A    between atoms: _637  and  _639
REMARK  242  A    between atoms: _639  and  _640
REMARK  243  A    between atoms: _639  and  _642
REMARK  244  A    between atoms: _642  and  _643
REMARK  245  A    between atoms: _643  and  _644
REMARK  246  A    between atoms: _644  and  _645
REMARK  247  A    between atoms: _645  and  _646
REMARK  248  A    between atoms: _650  and  _652
REMARK  249  A    between atoms: _652  and  _653
REMARK  250  A    between atoms: _652  and  _655
REMARK  251  A    between atoms: _655  and  _656
REMARK  252  A    between atoms: _662  and  _664
REMARK  253  A    between atoms: _664  and  _665
REMARK  254  A    between atoms: _664  and  _667
REMARK  255  A    between atoms: _667  and  _668
REMARK  256  A    between atoms: _673  and  _675
REMARK  257  A    between atoms: _675  and  _676
REMARK  258  A    between atoms: _675  and  _678
REMARK  259  A    between atoms: _678  and  _679
REMARK  260  A    between atoms: _681  and  _683
REMARK  261  A    between atoms: _683  and  _684
REMARK  262  A    between atoms: _683  and  _686
REMARK  263  A    between atoms: _686  and  _687
REMARK  264  A    between atoms: _689  and  _691
REMARK  265  A    between atoms: _691  and  _692
REMARK  266  A    between atoms: _691  and  _694
REMARK  267  A    between atoms: _698  and  _699
REMARK  268  A    between atoms: _704  and  _706
REMARK  269  A    between atoms: _706  and  _707
REMARK  270  A    between atoms: _706  and  _709
REMARK  271  A    between atoms: _709  and  _710
REMARK  272  A    between atoms: _715  and  _716
REMARK  273  A    between atoms: _718  and  _720
REMARK  274  A    between atoms: _720  and  _721
REMARK  275  A    between atoms: _720  and  _723
REMARK  276  A    between atoms: _723  and  _724
REMARK  277  A    between atoms: _724  and  _725
REMARK  278  A    between atoms: _725  and  _726
REMARK  279  A    between atoms: _735  and  _737
REMARK  280  A    between atoms: _737  and  _738
REMARK  281  A    between atoms: _737  and  _740
REMARK  282  A    between atoms: _740  and  _741
REMARK  283  A    between atoms: _746  and  _747
REMARK  284  A    between atoms: _749  and  _751
REMARK  285  A    between atoms: _751  and  _752
REMARK  286  A    between atoms: _751  and  _754
REMARK  287  A    between atoms: _754  and  _755
REMARK  288  A    between atoms: _761  and  _763
REMARK  289  A    between atoms: _763  and  _764
REMARK  290  A    between atoms: _763  and  _766
REMARK  291  A    between atoms: _766  and  _767
REMARK  292  A    between atoms: _769  and  _771
REMARK  293  A    between atoms: _771  and  _772
REMARK  294  A    between atoms: _771  and  _774
REMARK  295  A    between atoms: _774  and  _775
REMARK  296  A    between atoms: _781  and  _783
REMARK  297  A    between atoms: _783  and  _784
REMARK  298  A    between atoms: _783  and  _786
REMARK  299  A    between atoms: _786  and  _787
REMARK  300  A    between atoms: _787  and  _788
REMARK                            x       y       z     vdW  Elec       q    Type
REMARK                         _______ _______ _______ _____ _____    ______ ____
ROOT
ATOM      1  O   HOH     1      13.795 -11.495 -28.502  0.00  0.00    +0.000 OA
ENDROOT
TORSDOF 0
REMARK  Name = ../refined-set-2016/4ca5/4ca5_pocket.pdb
REMARK  300 active torsions:
REMARK  status: ('A' for Active; 'I' for Inactive)
REMARK    1  A    between atoms: _1  and  _3
REMARK    2  A    between atoms: _3  and  _4
REMARK    3  A    between atoms: _3  and  _6
REMARK    4  A    between atoms: _6  and  _7
REMARK    5  A    between atoms: _12  and  _14
REMARK    6  A    between atoms: _14  and  _15
REMARK    7  A    between atoms: _14  and  _17
REMARK    8  A    between atoms: _17  and  _18
REMARK    9  A    between atoms: _23  and  _25
REMARK   10  A    between atoms: _25  and  _26
REMARK   11  A    between atoms: _25  and  _28
REMARK   12  A    between atoms: _28  and  _29
REMARK   13  A    between atoms: _29  and  _30
REMARK   14  A    between atoms: _33  and  _35
REMARK   15  A    between atoms: _35  and  _36
REMARK   16  A    between atoms: _35  and  _38
REMARK   17  A    between atoms: _38  and  _39
REMARK   18  A    between atoms: _44  and  _45
REMARK   19  A    between atoms: _47  and  _49
REMARK   20  A    between atoms: _49  and  _50
REMARK   21  A    between atoms: _49  and  _52
REMARK   22  A    between atoms: _52  and  _53
REMARK   23  A    between atoms: _53  and  _54
REMARK   24  A    between atoms: _57  and  _59
REMARK   25  A    between atoms: _59  and  _60
REMARK   26  A    between atoms: _59  and  _62
REMARK   27  A    between atoms: _62  and  _63
REMARK   28  A    between atoms: _66  and  _68
REMARK   29  A    between atoms: _68  and  _69
REMARK   30  A    between atoms: _71  and  _73
REMARK   31  A    between atoms: _73  and  _74
REMARK   32  A    between atoms: _73  and  _76
REMARK   33  A    between atoms: _76  and  _77
REMARK   34  A    between atoms: _82  and  _84
REMARK   35  A    between atoms: _84  and  _85
REMARK   36  A    between atoms: _84  and  _87
REMARK   37  A    between atoms: _87  and  _88
REMARK   38  A    between atoms: _88  and  _89
REMARK   39  A    between atoms: _91  and  _93
REMARK   40  A    between atoms: _93  and  _94
REMARK   41  A    between atoms: _93  and  _96
REMARK   42  A    between atoms: _96  and  _97
REMARK   43  A    between atoms: _107  and  _109
REMARK   44  A    between atoms: _109  and  _110
REMARK   45  A    between atoms: _109  and  _112
REMARK   46  A    between atoms: _112  and  _113
REMARK   47  A    between atoms: _113  and  _114
REMARK   48  A    between atoms: _119  and  _121
REMARK   49  A    between atoms: _121  and  _122
REMARK   50  A    between atoms: _121  and  _124
REMARK   51  A    between atoms: _124  and  _125
REMARK   52  A    between atoms: _128  and  _130
REMARK   53  A    between atoms: _130  and  _131
REMARK   54  A    between atoms: _130  and  _133
REMARK   55  A    between atoms: _133  and  _134
REMARK   56  A    between atoms: _144  and  _146
REMARK   57  A    between atoms: _146  and  _147
REMARK   58  A    between atoms: _146  and  _149
REMARK   59  A    between atoms: _149  and  _150
REMARK   60  A    between atoms: _152  and  _154
REMARK   61  A    between atoms: _154  and  _155
REMARK   62  A    between atoms: _154  and  _157
REMARK   63  A    between atoms: _157  and  _158
REMARK   64  A    between atoms: _163  and  _165
REMARK   65  A    between atoms: _165  and  _166
REMARK   66  A    between atoms: _165  and  _168
REMARK   67  A    between atoms: _171  and  _173
REMARK   68  A    between atoms: _173  and  _174
REMARK   69  A    between atoms: _173  and  _176
REMARK   70  A    between atoms: _178  and  _180
REMARK   71  A    between atoms: _180  and  _181
REMARK   72  A    between atoms: _180  and  _183
REMARK   73  A    between atoms: _183  and  _184
REMARK   74  A    between atoms: _189  and  _191
REMARK   75  A    between atoms: _191  and  _192
REMARK   76  A    between atoms: _195  and  _197
REMARK   77  A    between atoms: _197  and  _198
REMARK   78  A    between atoms: _197  and  _200
REMARK   79  A    between atoms: _200  and  _201
REMARK   80  A    between atoms: _203  and  _205
REMARK   81  A    between atoms: _205  and  _206
REMARK   82  A    between atoms: _209  and  _211
REMARK   83  A    between atoms: _211  and  _212
REMARK   84  A    between atoms: _211  and  _214
REMARK   85  A    between atoms: _214  and  _215
REMARK   86  A    between atoms: _225  and  _227
REMARK   87  A    between atoms: _227  and  _228
REMARK   88  A    between atoms: _227  and  _230
REMARK   89  A    between atoms: _230  and  _231
REMARK   90  A    between atoms: _234  and  _236
REMARK   91  A    between atoms: _236  and  _237
REMARK   92  A    between atoms: _236  and  _239
REMARK   93  A    between atoms: _239  and  _240
REMARK   94  A    between atoms: _245  and  _246
REMARK   95  A    between atoms: _248  and  _250
REMARK   96  A    between atoms: _250  and  _251
REMARK   97  A    between atoms: _250  and  _253
REMARK   98  A    between atoms: _253  and  _254
REMARK   99  A    between atoms: _254  and  _255
REMARK  100  A    between atoms: _255  and  _256
REMARK  101  A    between atoms: _265  and  _267
REMARK  102  A    between atoms: _267  and  _268
REMARK  103  A    between atoms: _267  and  _270
REMARK  104  A    between atoms: _270  and  _271
REMARK  105  A    between atoms: _274  and  _276
REMARK  106  A    between atoms: _276  and  _277
REMARK  107  A    between atoms: _276  and  _279
REMARK  108  A    between atoms: _279  and  _280
REMARK  109  A    between atoms: _280  and  _281
REMARK  110  A    between atoms: _281  and  _282
REMARK  111  A    between atoms: _282  and  _283
REMARK  112  A    between atoms: _287  and  _289
REMARK  113  A    between atoms: _289  and  _290
REMARK  114  A    between atoms: _289  and  _292
REMARK  115  A    between atoms: _292  and  _293
REMARK  116  A    between atoms: _293  and  _294
REMARK  117  A    between atoms: _299  and  _301
REMARK  118  A    between atoms: _301  and  _302
REMARK  119  A    between atoms: _301  and  _304
REMARK  120  A    between atoms: _304  and  _305
REMARK  121  A    between atoms: _310  and  _312
REMARK  122  A    between atoms: _312  and  _313
REMARK  123  A    between atoms: _312  and  _315
REMARK  124  A    between atoms: _315  and  _316
REMARK  125  A    between atoms: _319  and  _321
REMARK  126  A    between atoms: _321  and  _322
REMARK  127  A    between atoms: _321  and  _324
REMARK  128  A    between atoms: _324  and  _325
REMARK  129  A    between atoms: _325  and  _326
REMARK  130  A    between atoms: _329  and  _331
REMARK  131  A    between atoms: _331  and  _332
REMARK  132  A    between atoms: _331  and  _334
REMARK  133  A    between atoms: _334  and  _335
REMARK  134  A    between atoms: _338  and  _340
REMARK  135  A    between atoms: _340  and  _341
REMARK  136  A    between atoms: _340  and  _343
REMARK  137  A    between atoms: _346  and  _348
REMARK  138  A    between atoms: _348  and  _349
REMARK  139  A    between atoms: _348  and  _351
REMARK  140  A    between atoms: _354  and  _356
REMARK  141  A    between atoms: _356  and  _357
REMARK  142  A    between atoms: _360  and  _362
REMARK  143  A    between atoms: _362  and  _363
REMARK  144  A    between atoms: _362  and  _365
REMARK  145  A    between atoms: _365  and  _366
REMARK  146  A    between atoms: _371  and  _373
REMARK  147  A    between atoms: _384  and  _387
REMARK  148  A    between atoms: _387  and  _388
REMARK  149  A    between atoms: _388  and  _389
REMARK  150  A    between atoms: _394  and  _397
REMARK  151  A    between atoms: _397  and  _398
REMARK  152  A    between atoms: _398  and  _399
REMARK  153  A    between atoms: _408  and  _409
REMARK  154  A    between atoms: _417  and  _419
REMARK  155  A    between atoms: _419  and  _420
REMARK  156  A    between atoms: _419  and  _422
REMARK  157  A    between atoms: _422  and  _423
REMARK  158  A    between atoms: _426  and  _428
REMARK  159  A    between atoms: _428  and  _429
REMARK  160  A    between atoms: _428  and  _431
REMARK  161  A    between atoms: _431  and  _432
REMARK  162  A    between atoms: _437  and  _438
REMARK  163  A    between atoms: _440  and  _442
REMARK  164  A    between atoms: _442  and  _443
REMARK  165  A    between atoms: _442  and  _445
REMARK  166  A    between atoms: _445  and  _446
REMARK  167  A    between atoms: _452  and  _454
REMARK  168  A    between atoms: _454  and  _455
REMARK  169  A    between atoms: _454  and  _457
REMARK  170  A    between atoms: _457  and  _458
REMARK  171  A    between atoms: _463  and  _464
REMARK  172  A    between atoms: _466  and  _468
REMARK  173  A    between atoms: _468  and  _469
REMARK  174  A    between atoms: _468  and  _471
REMARK  175  A    between atoms: _471  and  _472
REMARK  176  A    between atoms: _472  and  _473
REMARK  177  A    between atoms: _473  and  _474
REMARK  178  A    between atoms: _483  and  _485
REMARK  179  A    between atoms: _485  and  _486
REMARK  180  A    between atoms: _485  and  _488
REMARK  181  A    between atoms: _488  and  _489
REMARK  182  A    between atoms: _489  and  _490
REMARK  183  A    between atoms: _493  and  _495
REMARK  184  A    between atoms: _495  and  _496
REMARK  185  A    between atoms: _498  and  _500
REMARK  186  A    between atoms: _500  and  _501
REMARK  187  A    between atoms: _500  and  _503
REMARK  188  A    between atoms: _503  and  _504
REMARK  189  A    between atoms: _510  and  _511
REMARK  190  A    between atoms: _516  and  _518
REMARK  191  A    between atoms: _518  and  _519
REMARK  192  A    between atoms: _521  and  _523
REMARK  193  A    between atoms: _523  and  _524
REMARK  194  A    between atoms: _523  and  _526
REMARK  195  A    between atoms: _526  and  _527
REMARK  196  A    between atoms: _533  and  _535
REMARK  197  A    between atoms: _535  and  _536
REMARK  198  A    between atoms: _535  and  _538
REMARK  199  A    between atoms: _538  and  _539
REMARK  200  A    between atoms: _544  and  _546
REMARK  201  A    between atoms: _546  and  _547
REMARK  202  A    between atoms: _546  and  _549
REMARK  203  A    between atoms: _549  and  _550
REMARK  204  A    between atoms: _550  and  _551
REMARK  205  A    between atoms: _551  and  _552
REMARK  206  A    between atoms: _552  and  ZN_793
REMARK  207  A    between atoms: _554  and  _556
REMARK  208  A    between atoms: _556  and  _557
REMARK  209  A    between atoms: _560  and  _562
REMARK  210  A    between atoms: _562  and  _563
REMARK  211  A    between atoms: _562  and  _565
REMARK  212  A    between atoms: _565  and  _566
REMARK  213  A    between atoms: _569  and  _571
REMARK  214  A    between atoms: _571  and  _572
REMARK  215  A    between atoms: _575  and  _577
REMARK  216  A    between atoms: _577  and  _578
REMARK  217  A    between atoms: _577  and  _580
REMARK  218  A    between atoms: _580  and  _581
REMARK  219  A    between atoms: _584  and  _586
REMARK  220  A    between atoms: _586  and  _587
REMARK  221  A    between atoms: _586  and  _589
REMARK  222  A    between atoms: _589  and  _590
REMARK  223  A    between atoms: _590  and  _591
REMARK  224  A    between atoms: _591  and  _592
REMARK  225  A    between atoms: _592  and  _593
REMARK  226  A    between atoms: _597  and  _599
REMARK  227  A    between atoms: _599  and  _600
REMARK  228  A    between atoms: _599  and  _602
REMARK  229  A    between atoms: _602  and  _603
REMARK  230  A    between atoms: _609  and  _611
REMARK  231  A    between atoms: _611  and  _612
REMARK  232  A    between atoms: _611  and  _614
REMARK  233  A    between atoms: _614  and  _615
REMARK  234  A    between atoms: _621  and  _623
REMARK  235  A    between atoms: _623  and  _624
REMARK  236  A    between atoms: _623  and  _626
REMARK  237  A    between atoms: _626  and  _627
REMARK  238  A    between atoms: _629  and  _631
REMARK  239  A    between atoms: _631  and  _632
REMARK  240  A    between atoms: _631  and  _634
REMARK  241  A    between atoms: _637  and  _639
REMARK  242  A    between atoms: _639  and  _640
REMARK  243  A    between atoms: _639  and  _642
REMARK  244  A    between atoms: _642  and  _643
REMARK  245  A    between atoms: _643  and  _644
REMARK  246  A    between atoms: _644  and  _645
REMARK  247  A    between atoms: _645  and  _646
REMARK  248  A    between atoms: _650  and  _652
REMARK  249  A    between atoms: _652  and  _653
REMARK  250  A    between atoms: _652  and  _655
REMARK  251  A    between atoms: _655  and  _656
REMARK  252  A    between atoms: _662  and  _664
REMARK  253  A    between atoms: _664  and  _665
REMARK  254  A    between atoms: _664  and  _667
REMARK  255  A    between atoms: _667  and  _668
REMARK  256  A    between atoms: _673  and  _675
REMARK  257  A    between atoms: _675  and  _676
REMARK  258  A    between atoms: _675  and  _678
REMARK  259  A    between atoms: _678  and  _679
REMARK  260  A    between atoms: _681  and  _683
REMARK  261  A    between atoms: _683  and  _684
REMARK  262  A    between atoms: _683  and  _686
REMARK  263  A    between atoms: _686  and  _687
REMARK  264  A    between atoms: _689  and  _691
REMARK  265  A    between atoms: _691  and  _692
REMARK  266  A    between atoms: _691  and  _694
REMARK  267  A    between atoms: _698  and  _699
REMARK  268  A    between atoms: _704  and  _706
REMARK  269  A    between atoms: _706  and  _707
REMARK  270  A    between atoms: _706  and  _709
REMARK  271  A    between atoms: _709  and  _710
REMARK  272  A    between atoms: _715  and  _716
REMARK  273  A    between atoms: _718  and  _720
REMARK  274  A    between atoms: _720  and  _721
REMARK  275  A    between atoms: _720  and  _723
REMARK  276  A    between atoms: _723  and  _724
REMARK  277  A    between atoms: _724  and  _725
REMARK  278  A    between atoms: _725  and  _726
REMARK  279  A    between atoms: _735  and  _737
REMARK  280  A    between atoms: _737  and  _738
REMARK  281  A    between atoms: _737  and  _740
REMARK  282  A    between atoms: _740  and  _741
REMARK  283  A    between atoms: _746  and  _747
REMARK  284  A    between atoms: _749  and  _751
REMARK  285  A    between atoms: _751  and  _752
REMARK  286  A    between atoms: _751  and  _754
REMARK  287  A    between atoms: _754  and  _755
REMARK  288  A    between atoms: _761  and  _763
REMARK  289  A    between atoms: _763  and  _764
REMARK  290  A    between atoms: _763  and  _766
REMARK  291  A    between atoms: _766  and  _767
REMARK  292  A    between atoms: _769  and  _771
REMARK  293  A    between atoms: _771  and  _772
REMARK  294  A    between atoms: _771  and  _774
REMARK  295  A    between atoms: _774  and  _775
REMARK  296  A    between atoms: _781  and  _783
REMARK  297  A    between atoms: _783  and  _784
REMARK  298  A    between atoms: _783  and  _786
REMARK  299  A    between atoms: _786  and  _787
REMARK  300  A    between atoms: _787  and  _788
REMARK                            x       y       z     vdW  Elec       q    Type
REMARK                         _______ _______ _______ _____ _____    ______ ____
ROOT
ATOM      1  O   HOH     1      16.557 -14.137 -31.718  0.00  0.00    +0.000 OA
ENDROOT
TORSDOF 0
REMARK  Name = ../refined-set-2016/4ca5/4ca5_pocket.pdb
REMARK  300 active torsions:
REMARK  status: ('A' for Active; 'I' for Inactive)
REMARK    1  A    between atoms: _1  and  _3
REMARK    2  A    between atoms: _3  and  _4
REMARK    3  A    between atoms: _3  and  _6
REMARK    4  A    between atoms: _6  and  _7
REMARK    5  A    between atoms: _12  and  _14
REMARK    6  A    between atoms: _14  and  _15
REMARK    7  A    between atoms: _14  and  _17
REMARK    8  A    between atoms: _17  and  _18
REMARK    9  A    between atoms: _23  and  _25
REMARK   10  A    between atoms: _25  and  _26
REMARK   11  A    between atoms: _25  and  _28
REMARK   12  A    between atoms: _28  and  _29
REMARK   13  A    between atoms: _29  and  _30
REMARK   14  A    between atoms: _33  and  _35
REMARK   15  A    between atoms: _35  and  _36
REMARK   16  A    between atoms: _35  and  _38
REMARK   17  A    between atoms: _38  and  _39
REMARK   18  A    between atoms: _44  and  _45
REMARK   19  A    between atoms: _47  and  _49
REMARK   20  A    between atoms: _49  and  _50
REMARK   21  A    between atoms: _49  and  _52
REMARK   22  A    between atoms: _52  and  _53
REMARK   23  A    between atoms: _53  and  _54
REMARK   24  A    between atoms: _57  and  _59
REMARK   25  A    between atoms: _59  and  _60
REMARK   26  A    between atoms: _59  and  _62
REMARK   27  A    between atoms: _62  and  _63
REMARK   28  A    between atoms: _66  and  _68
REMARK   29  A    between atoms: _68  and  _69
REMARK   30  A    between atoms: _71  and  _73
REMARK   31  A    between atoms: _73  and  _74
REMARK   32  A    between atoms: _73  and  _76
REMARK   33  A    between atoms: _76  and  _77
REMARK   34  A    between atoms: _82  and  _84
REMARK   35  A    between atoms: _84  and  _85
REMARK   36  A    between atoms: _84  and  _87
REMARK   37  A    between atoms: _87  and  _88
REMARK   38  A    between atoms: _88  and  _89
REMARK   39  A    between atoms: _91  and  _93
REMARK   40  A    between atoms: _93  and  _94
REMARK   41  A    between atoms: _93  and  _96
REMARK   42  A    between atoms: _96  and  _97
REMARK   43  A    between atoms: _107  and  _109
REMARK   44  A    between atoms: _109  and  _110
REMARK   45  A    between atoms: _109  and  _112
REMARK   46  A    between atoms: _112  and  _113
REMARK   47  A    between atoms: _113  and  _114
REMARK   48  A    between atoms: _119  and  _121
REMARK   49  A    between atoms: _121  and  _122
REMARK   50  A    between atoms: _121  and  _124
REMARK   51  A    between atoms: _124  and  _125
REMARK   52  A    between atoms: _128  and  _130
REMARK   53  A    between atoms: _130  and  _131
REMARK   54  A    between atoms: _130  and  _133
REMARK   55  A    between atoms: _133  and  _134
REMARK   56  A    between atoms: _144  and  _146
REMARK   57  A    between atoms: _146  and  _147
REMARK   58  A    between atoms: _146  and  _149
REMARK   59  A    between atoms: _149  and  _150
REMARK   60  A    between atoms: _152  and  _154
REMARK   61  A    between atoms: _154  and  _155
REMARK   62  A    between atoms: _154  and  _157
REMARK   63  A    between atoms: _157  and  _158
REMARK   64  A    between atoms: _163  and  _165
REMARK   65  A    between atoms: _165  and  _166
REMARK   66  A    between atoms: _165  and  _168
REMARK   67  A    between atoms: _171  and  _173
REMARK   68  A    between atoms: _173  and  _174
REMARK   69  A    between atoms: _173  and  _176
REMARK   70  A    between atoms: _178  and  _180
REMARK   71  A    between atoms: _180  and  _181
REMARK   72  A    between atoms: _180  and  _183
REMARK   73  A    between atoms: _183  and  _184
REMARK   74  A    between atoms: _189  and  _191
REMARK   75  A    between atoms: _191  and  _192
REMARK   76  A    between atoms: _195  and  _197
REMARK   77  A    between atoms: _197  and  _198
REMARK   78  A    between atoms: _197  and  _200
REMARK   79  A    between atoms: _200  and  _201
REMARK   80  A    between atoms: _203  and  _205
REMARK   81  A    between atoms: _205  and  _206
REMARK   82  A    between atoms: _209  and  _211
REMARK   83  A    between atoms: _211  and  _212
REMARK   84  A    between atoms: _211  and  _214
REMARK   85  A    between atoms: _214  and  _215
REMARK   86  A    between atoms: _225  and  _227
REMARK   87  A    between atoms: _227  and  _228
REMARK   88  A    between atoms: _227  and  _230
REMARK   89  A    between atoms: _230  and  _231
REMARK   90  A    between atoms: _234  and  _236
REMARK   91  A    between atoms: _236  and  _237
REMARK   92  A    between atoms: _236  and  _239
REMARK   93  A    between atoms: _239  and  _240
REMARK   94  A    between atoms: _245  and  _246
REMARK   95  A    between atoms: _248  and  _250
REMARK   96  A    between atoms: _250  and  _251
REMARK   97  A    between atoms: _250  and  _253
REMARK   98  A    between atoms: _253  and  _254
REMARK   99  A    between atoms: _254  and  _255
REMARK  100  A    between atoms: _255  and  _256
REMARK  101  A    between atoms: _265  and  _267
REMARK  102  A    between atoms: _267  and  _268
REMARK  103  A    between atoms: _267  and  _270
REMARK  104  A    between atoms: _270  and  _271
REMARK  105  A    between atoms: _274  and  _276
REMARK  106  A    between atoms: _276  and  _277
REMARK  107  A    between atoms: _276  and  _279
REMARK  108  A    between atoms: _279  and  _280
REMARK  109  A    between atoms: _280  and  _281
REMARK  110  A    between atoms: _281  and  _282
REMARK  111  A    between atoms: _282  and  _283
REMARK  112  A    between atoms: _287  and  _289
REMARK  113  A    between atoms: _289  and  _290
REMARK  114  A    between atoms: _289  and  _292
REMARK  115  A    between atoms: _292  and  _293
REMARK  116  A    between atoms: _293  and  _294
REMARK  117  A    between atoms: _299  and  _301
REMARK  118  A    between atoms: _301  and  _302
REMARK  119  A    between atoms: _301  and  _304
REMARK  120  A    between atoms: _304  and  _305
REMARK  121  A    between atoms: _310  and  _312
REMARK  122  A    between atoms: _312  and  _313
REMARK  123  A    between atoms: _312  and  _315
REMARK  124  A    between atoms: _315  and  _316
REMARK  125  A    between atoms: _319  and  _321
REMARK  126  A    between atoms: _321  and  _322
REMARK  127  A    between atoms: _321  and  _324
REMARK  128  A    between atoms: _324  and  _325
REMARK  129  A    between atoms: _325  and  _326
REMARK  130  A    between atoms: _329  and  _331
REMARK  131  A    between atoms: _331  and  _332
REMARK  132  A    between atoms: _331  and  _334
REMARK  133  A    between atoms: _334  and  _335
REMARK  134  A    between atoms: _338  and  _340
REMARK  135  A    between atoms: _340  and  _341
REMARK  136  A    between atoms: _340  and  _343
REMARK  137  A    between atoms: _346  and  _348
REMARK  138  A    between atoms: _348  and  _349
REMARK  139  A    between atoms: _348  and  _351
REMARK  140  A    between atoms: _354  and  _356
REMARK  141  A    between atoms: _356  and  _357
REMARK  142  A    between atoms: _360  and  _362
REMARK  143  A    between atoms: _362  and  _363
REMARK  144  A    between atoms: _362  and  _365
REMARK  145  A    between atoms: _365  and  _366
REMARK  146  A    between atoms: _371  and  _373
REMARK  147  A    between atoms: _384  and  _387
REMARK  148  A    between atoms: _387  and  _388
REMARK  149  A    between atoms: _388  and  _389
REMARK  150  A    between atoms: _394  and  _397
REMARK  151  A    between atoms: _397  and  _398
REMARK  152  A    between atoms: _398  and  _399
REMARK  153  A    between atoms: _408  and  _409
REMARK  154  A    between atoms: _417  and  _419
REMARK  155  A    between atoms: _419  and  _420
REMARK  156  A    between atoms: _419  and  _422
REMARK  157  A    between atoms: _422  and  _423
REMARK  158  A    between atoms: _426  and  _428
REMARK  159  A    between atoms: _428  and  _429
REMARK  160  A    between atoms: _428  and  _431
REMARK  161  A    between atoms: _431  and  _432
REMARK  162  A    between atoms: _437  and  _438
REMARK  163  A    between atoms: _440  and  _442
REMARK  164  A    between atoms: _442  and  _443
REMARK  165  A    between atoms: _442  and  _445
REMARK  166  A    between atoms: _445  and  _446
REMARK  167  A    between atoms: _452  and  _454
REMARK  168  A    between atoms: _454  and  _455
REMARK  169  A    between atoms: _454  and  _457
REMARK  170  A    between atoms: _457  and  _458
REMARK  171  A    between atoms: _463  and  _464
REMARK  172  A    between atoms: _466  and  _468
REMARK  173  A    between atoms: _468  and  _469
REMARK  174  A    between atoms: _468  and  _471
REMARK  175  A    between atoms: _471  and  _472
REMARK  176  A    between atoms: _472  and  _473
REMARK  177  A    between atoms: _473  and  _474
REMARK  178  A    between atoms: _483  and  _485
REMARK  179  A    between atoms: _485  and  _486
REMARK  180  A    between atoms: _485  and  _488
REMARK  181  A    between atoms: _488  and  _489
REMARK  182  A    between atoms: _489  and  _490
REMARK  183  A    between atoms: _493  and  _495
REMARK  184  A    between atoms: _495  and  _496
REMARK  185  A    between atoms: _498  and  _500
REMARK  186  A    between atoms: _500  and  _501
REMARK  187  A    between atoms: _500  and  _503
REMARK  188  A    between atoms: _503  and  _504
REMARK  189  A    between atoms: _510  and  _511
REMARK  190  A    between atoms: _516  and  _518
REMARK  191  A    between atoms: _518  and  _519
REMARK  192  A    between atoms: _521  and  _523
REMARK  193  A    between atoms: _523  and  _524
REMARK  194  A    between atoms: _523  and  _526
REMARK  195  A    between atoms: _526  and  _527
REMARK  196  A    between atoms: _533  and  _535
REMARK  197  A    between atoms: _535  and  _536
REMARK  198  A    between atoms: _535  and  _538
REMARK  199  A    between atoms: _538  and  _539
REMARK  200  A    between atoms: _544  and  _546
REMARK  201  A    between atoms: _546  and  _547
REMARK  202  A    between atoms: _546  and  _549
REMARK  203  A    between atoms: _549  and  _550
REMARK  204  A    between atoms: _550  and  _551
REMARK  205  A    between atoms: _551  and  _552
REMARK  206  A    between atoms: _552  and  ZN_793
REMARK  207  A    between atoms: _554  and  _556
REMARK  208  A    between atoms: _556  and  _557
REMARK  209  A    between atoms: _560  and  _562
REMARK  210  A    between atoms: _562  and  _563
REMARK  211  A    between atoms: _562  and  _565
REMARK  212  A    between atoms: _565  and  _566
REMARK  213  A    between atoms: _569  and  _571
REMARK  214  A    between atoms: _571  and  _572
REMARK  215  A    between atoms: _575  and  _577
REMARK  216  A    between atoms: _577  and  _578
REMARK  217  A    between atoms: _577  and  _580
REMARK  218  A    between atoms: _580  and  _581
REMARK  219  A    between atoms: _584  and  _586
REMARK  220  A    between atoms: _586  and  _587
REMARK  221  A    between atoms: _586  and  _589
REMARK  222  A    between atoms: _589  and  _590
REMARK  223  A    between atoms: _590  and  _591
REMARK  224  A    between atoms: _591  and  _592
REMARK  225  A    between atoms: _592  and  _593
REMARK  226  A    between atoms: _597  and  _599
REMARK  227  A    between atoms: _599  and  _600
REMARK  228  A    between atoms: _599  and  _602
REMARK  229  A    between atoms: _602  and  _603
REMARK  230  A    between atoms: _609  and  _611
REMARK  231  A    between atoms: _611  and  _612
REMARK  232  A    between atoms: _611  and  _614
REMARK  233  A    between atoms: _614  and  _615
REMARK  234  A    between atoms: _621  and  _623
REMARK  235  A    between atoms: _623  and  _624
REMARK  236  A    between atoms: _623  and  _626
REMARK  237  A    between atoms: _626  and  _627
REMARK  238  A    between atoms: _629  and  _631
REMARK  239  A    between atoms: _631  and  _632
REMARK  240  A    between atoms: _631  and  _634
REMARK  241  A    between atoms: _637  and  _639
REMARK  242  A    between atoms: _639  and  _640
REMARK  243  A    between atoms: _639  and  _642
REMARK  244  A    between atoms: _642  and  _643
REMARK  245  A    between atoms: _643  and  _644
REMARK  246  A    between atoms: _644  and  _645
REMARK  247  A    between atoms: _645  and  _646
REMARK  248  A    between atoms: _650  and  _652
REMARK  249  A    between atoms: _652  and  _653
REMARK  250  A    between atoms: _652  and  _655
REMARK  251  A    between atoms: _655  and  _656
REMARK  252  A    between atoms: _662  and  _664
REMARK  253  A    between atoms: _664  and  _665
REMARK  254  A    between atoms: _664  and  _667
REMARK  255  A    between atoms: _667  and  _668
REMARK  256  A    between atoms: _673  and  _675
REMARK  257  A    between atoms: _675  and  _676
REMARK  258  A    between atoms: _675  and  _678
REMARK  259  A    between atoms: _678  and  _679
REMARK  260  A    between atoms: _681  and  _683
REMARK  261  A    between atoms: _683  and  _684
REMARK  262  A    between atoms: _683  and  _686
REMARK  263  A    between atoms: _686  and  _687
REMARK  264  A    between atoms: _689  and  _691
REMARK  265  A    between atoms: _691  and  _692
REMARK  266  A    between atoms: _691  and  _694
REMARK  267  A    between atoms: _698  and  _699
REMARK  268  A    between atoms: _704  and  _706
REMARK  269  A    between atoms: _706  and  _707
REMARK  270  A    between atoms: _706  and  _709
REMARK  271  A    between atoms: _709  and  _710
REMARK  272  A    between atoms: _715  and  _716
REMARK  273  A    between atoms: _718  and  _720
REMARK  274  A    between atoms: _720  and  _721
REMARK  275  A    between atoms: _720  and  _723
REMARK  276  A    between atoms: _723  and  _724
REMARK  277  A    between atoms: _724  and  _725
REMARK  278  A    between atoms: _725  and  _726
REMARK  279  A    between atoms: _735  and  _737
REMARK  280  A    between atoms: _737  and  _738
REMARK  281  A    between atoms: _737  and  _740
REMARK  282  A    between atoms: _740  and  _741
REMARK  283  A    between atoms: _746  and  _747
REMARK  284  A    between atoms: _749  and  _751
REMARK  285  A    between atoms: _751  and  _752
REMARK  286  A    between atoms: _751  and  _754
REMARK  287  A    between atoms: _754  and  _755
REMARK  288  A    between atoms: _761  and  _763
REMARK  289  A    between atoms: _763  and  _764
REMARK  290  A    between atoms: _763  and  _766
REMARK  291  A    between atoms: _766  and  _767
REMARK  292  A    between atoms: _769  and  _771
REMARK  293  A    between atoms: _771  and  _772
REMARK  294  A    between atoms: _771  and  _774
REMARK  295  A    between atoms: _774  and  _775
REMARK  296  A    between atoms: _781  and  _783
REMARK  297  A    between atoms: _783  and  _784
REMARK  298  A    between atoms: _783  and  _786
REMARK  299  A    between atoms: _786  and  _787
REMARK  300  A    between atoms: _787  and  _788
REMARK                            x       y       z     vdW  Elec       q    Type
REMARK                         _______ _______ _______ _____ _____    ______ ____
ROOT
ATOM      1  O   HOH     1      20.084 -16.605 -32.348  0.00  0.00    +0.000 OA
ENDROOT
TORSDOF 0
REMARK  Name = ../refined-set-2016/4ca5/4ca5_pocket.pdb
REMARK  300 active torsions:
REMARK  status: ('A' for Active; 'I' for Inactive)
REMARK    1  A    between atoms: _1  and  _3
REMARK    2  A    between atoms: _3  and  _4
REMARK    3  A    between atoms: _3  and  _6
REMARK    4  A    between atoms: _6  and  _7
REMARK    5  A    between atoms: _12  and  _14
REMARK    6  A    between atoms: _14  and  _15
REMARK    7  A    between atoms: _14  and  _17
REMARK    8  A    between atoms: _17  and  _18
REMARK    9  A    between atoms: _23  and  _25
REMARK   10  A    between atoms: _25  and  _26
REMARK   11  A    between atoms: _25  and  _28
REMARK   12  A    between atoms: _28  and  _29
REMARK   13  A    between atoms: _29  and  _30
REMARK   14  A    between atoms: _33  and  _35
REMARK   15  A    between atoms: _35  and  _36
REMARK   16  A    between atoms: _35  and  _38
REMARK   17  A    between atoms: _38  and  _39
REMARK   18  A    between atoms: _44  and  _45
REMARK   19  A    between atoms: _47  and  _49
REMARK   20  A    between atoms: _49  and  _50
REMARK   21  A    between atoms: _49  and  _52
REMARK   22  A    between atoms: _52  and  _53
REMARK   23  A    between atoms: _53  and  _54
REMARK   24  A    between atoms: _57  and  _59
REMARK   25  A    between atoms: _59  and  _60
REMARK   26  A    between atoms: _59  and  _62
REMARK   27  A    between atoms: _62  and  _63
REMARK   28  A    between atoms: _66  and  _68
REMARK   29  A    between atoms: _68  and  _69
REMARK   30  A    between atoms: _71  and  _73
REMARK   31  A    between atoms: _73  and  _74
REMARK   32  A    between atoms: _73  and  _76
REMARK   33  A    between atoms: _76  and  _77
REMARK   34  A    between atoms: _82  and  _84
REMARK   35  A    between atoms: _84  and  _85
REMARK   36  A    between atoms: _84  and  _87
REMARK   37  A    between atoms: _87  and  _88
REMARK   38  A    between atoms: _88  and  _89
REMARK   39  A    between atoms: _91  and  _93
REMARK   40  A    between atoms: _93  and  _94
REMARK   41  A    between atoms: _93  and  _96
REMARK   42  A    between atoms: _96  and  _97
REMARK   43  A    between atoms: _107  and  _109
REMARK   44  A    between atoms: _109  and  _110
REMARK   45  A    between atoms: _109  and  _112
REMARK   46  A    between atoms: _112  and  _113
REMARK   47  A    between atoms: _113  and  _114
REMARK   48  A    between atoms: _119  and  _121
REMARK   49  A    between atoms: _121  and  _122
REMARK   50  A    between atoms: _121  and  _124
REMARK   51  A    between atoms: _124  and  _125
REMARK   52  A    between atoms: _128  and  _130
REMARK   53  A    between atoms: _130  and  _131
REMARK   54  A    between atoms: _130  and  _133
REMARK   55  A    between atoms: _133  and  _134
REMARK   56  A    between atoms: _144  and  _146
REMARK   57  A    between atoms: _146  and  _147
REMARK   58  A    between atoms: _146  and  _149
REMARK   59  A    between atoms: _149  and  _150
REMARK   60  A    between atoms: _152  and  _154
REMARK   61  A    between atoms: _154  and  _155
REMARK   62  A    between atoms: _154  and  _157
REMARK   63  A    between atoms: _157  and  _158
REMARK   64  A    between atoms: _163  and  _165
REMARK   65  A    between atoms: _165  and  _166
REMARK   66  A    between atoms: _165  and  _168
REMARK   67  A    between atoms: _171  and  _173
REMARK   68  A    between atoms: _173  and  _174
REMARK   69  A    between atoms: _173  and  _176
REMARK   70  A    between atoms: _178  and  _180
REMARK   71  A    between atoms: _180  and  _181
REMARK   72  A    between atoms: _180  and  _183
REMARK   73  A    between atoms: _183  and  _184
REMARK   74  A    between atoms: _189  and  _191
REMARK   75  A    between atoms: _191  and  _192
REMARK   76  A    between atoms: _195  and  _197
REMARK   77  A    between atoms: _197  and  _198
REMARK   78  A    between atoms: _197  and  _200
REMARK   79  A    between atoms: _200  and  _201
REMARK   80  A    between atoms: _203  and  _205
REMARK   81  A    between atoms: _205  and  _206
REMARK   82  A    between atoms: _209  and  _211
REMARK   83  A    between atoms: _211  and  _212
REMARK   84  A    between atoms: _211  and  _214
REMARK   85  A    between atoms: _214  and  _215
REMARK   86  A    between atoms: _225  and  _227
REMARK   87  A    between atoms: _227  and  _228
REMARK   88  A    between atoms: _227  and  _230
REMARK   89  A    between atoms: _230  and  _231
REMARK   90  A    between atoms: _234  and  _236
REMARK   91  A    between atoms: _236  and  _237
REMARK   92  A    between atoms: _236  and  _239
REMARK   93  A    between atoms: _239  and  _240
REMARK   94  A    between atoms: _245  and  _246
REMARK   95  A    between atoms: _248  and  _250
REMARK   96  A    between atoms: _250  and  _251
REMARK   97  A    between atoms: _250  and  _253
REMARK   98  A    between atoms: _253  and  _254
REMARK   99  A    between atoms: _254  and  _255
REMARK  100  A    between atoms: _255  and  _256
REMARK  101  A    between atoms: _265  and  _267
REMARK  102  A    between atoms: _267  and  _268
REMARK  103  A    between atoms: _267  and  _270
REMARK  104  A    between atoms: _270  and  _271
REMARK  105  A    between atoms: _274  and  _276
REMARK  106  A    between atoms: _276  and  _277
REMARK  107  A    between atoms: _276  and  _279
REMARK  108  A    between atoms: _279  and  _280
REMARK  109  A    between atoms: _280  and  _281
REMARK  110  A    between atoms: _281  and  _282
REMARK  111  A    between atoms: _282  and  _283
REMARK  112  A    between atoms: _287  and  _289
REMARK  113  A    between atoms: _289  and  _290
REMARK  114  A    between atoms: _289  and  _292
REMARK  115  A    between atoms: _292  and  _293
REMARK  116  A    between atoms: _293  and  _294
REMARK  117  A    between atoms: _299  and  _301
REMARK  118  A    between atoms: _301  and  _302
REMARK  119  A    between atoms: _301  and  _304
REMARK  120  A    between atoms: _304  and  _305
REMARK  121  A    between atoms: _310  and  _312
REMARK  122  A    between atoms: _312  and  _313
REMARK  123  A    between atoms: _312  and  _315
REMARK  124  A    between atoms: _315  and  _316
REMARK  125  A    between atoms: _319  and  _321
REMARK  126  A    between atoms: _321  and  _322
REMARK  127  A    between atoms: _321  and  _324
REMARK  128  A    between atoms: _324  and  _325
REMARK  129  A    between atoms: _325  and  _326
REMARK  130  A    between atoms: _329  and  _331
REMARK  131  A    between atoms: _331  and  _332
REMARK  132  A    between atoms: _331  and  _334
REMARK  133  A    between atoms: _334  and  _335
REMARK  134  A    between atoms: _338  and  _340
REMARK  135  A    between atoms: _340  and  _341
REMARK  136  A    between atoms: _340  and  _343
REMARK  137  A    between atoms: _346  and  _348
REMARK  138  A    between atoms: _348  and  _349
REMARK  139  A    between atoms: _348  and  _351
REMARK  140  A    between atoms: _354  and  _356
REMARK  141  A    between atoms: _356  and  _357
REMARK  142  A    between atoms: _360  and  _362
REMARK  143  A    between atoms: _362  and  _363
REMARK  144  A    between atoms: _362  and  _365
REMARK  145  A    between atoms: _365  and  _366
REMARK  146  A    between atoms: _371  and  _373
REMARK  147  A    between atoms: _384  and  _387
REMARK  148  A    between atoms: _387  and  _388
REMARK  149  A    between atoms: _388  and  _389
REMARK  150  A    between atoms: _394  and  _397
REMARK  151  A    between atoms: _397  and  _398
REMARK  152  A    between atoms: _398  and  _399
REMARK  153  A    between atoms: _408  and  _409
REMARK  154  A    between atoms: _417  and  _419
REMARK  155  A    between atoms: _419  and  _420
REMARK  156  A    between atoms: _419  and  _422
REMARK  157  A    between atoms: _422  and  _423
REMARK  158  A    between atoms: _426  and  _428
REMARK  159  A    between atoms: _428  and  _429
REMARK  160  A    between atoms: _428  and  _431
REMARK  161  A    between atoms: _431  and  _432
REMARK  162  A    between atoms: _437  and  _438
REMARK  163  A    between atoms: _440  and  _442
REMARK  164  A    between atoms: _442  and  _443
REMARK  165  A    between atoms: _442  and  _445
REMARK  166  A    between atoms: _445  and  _446
REMARK  167  A    between atoms: _452  and  _454
REMARK  168  A    between atoms: _454  and  _455
REMARK  169  A    between atoms: _454  and  _457
REMARK  170  A    between atoms: _457  and  _458
REMARK  171  A    between atoms: _463  and  _464
REMARK  172  A    between atoms: _466  and  _468
REMARK  173  A    between atoms: _468  and  _469
REMARK  174  A    between atoms: _468  and  _471
REMARK  175  A    between atoms: _471  and  _472
REMARK  176  A    between atoms: _472  and  _473
REMARK  177  A    between atoms: _473  and  _474
REMARK  178  A    between atoms: _483  and  _485
REMARK  179  A    between atoms: _485  and  _486
REMARK  180  A    between atoms: _485  and  _488
REMARK  181  A    between atoms: _488  and  _489
REMARK  182  A    between atoms: _489  and  _490
REMARK  183  A    between atoms: _493  and  _495
REMARK  184  A    between atoms: _495  and  _496
REMARK  185  A    between atoms: _498  and  _500
REMARK  186  A    between atoms: _500  and  _501
REMARK  187  A    between atoms: _500  and  _503
REMARK  188  A    between atoms: _503  and  _504
REMARK  189  A    between atoms: _510  and  _511
REMARK  190  A    between atoms: _516  and  _518
REMARK  191  A    between atoms: _518  and  _519
REMARK  192  A    between atoms: _521  and  _523
REMARK  193  A    between atoms: _523  and  _524
REMARK  194  A    between atoms: _523  and  _526
REMARK  195  A    between atoms: _526  and  _527
REMARK  196  A    between atoms: _533  and  _535
REMARK  197  A    between atoms: _535  and  _536
REMARK  198  A    between atoms: _535  and  _538
REMARK  199  A    between atoms: _538  and  _539
REMARK  200  A    between atoms: _544  and  _546
REMARK  201  A    between atoms: _546  and  _547
REMARK  202  A    between atoms: _546  and  _549
REMARK  203  A    between atoms: _549  and  _550
REMARK  204  A    between atoms: _550  and  _551
REMARK  205  A    between atoms: _551  and  _552
REMARK  206  A    between atoms: _552  and  ZN_793
REMARK  207  A    between atoms: _554  and  _556
REMARK  208  A    between atoms: _556  and  _557
REMARK  209  A    between atoms: _560  and  _562
REMARK  210  A    between atoms: _562  and  _563
REMARK  211  A    between atoms: _562  and  _565
REMARK  212  A    between atoms: _565  and  _566
REMARK  213  A    between atoms: _569  and  _571
REMARK  214  A    between atoms: _571  and  _572
REMARK  215  A    between atoms: _575  and  _577
REMARK  216  A    between atoms: _577  and  _578
REMARK  217  A    between atoms: _577  and  _580
REMARK  218  A    between atoms: _580  and  _581
REMARK  219  A    between atoms: _584  and  _586
REMARK  220  A    between atoms: _586  and  _587
REMARK  221  A    between atoms: _586  and  _589
REMARK  222  A    between atoms: _589  and  _590
REMARK  223  A    between atoms: _590  and  _591
REMARK  224  A    between atoms: _591  and  _592
REMARK  225  A    between atoms: _592  and  _593
REMARK  226  A    between atoms: _597  and  _599
REMARK  227  A    between atoms: _599  and  _600
REMARK  228  A    between atoms: _599  and  _602
REMARK  229  A    between atoms: _602  and  _603
REMARK  230  A    between atoms: _609  and  _611
REMARK  231  A    between atoms: _611  and  _612
REMARK  232  A    between atoms: _611  and  _614
REMARK  233  A    between atoms: _614  and  _615
REMARK  234  A    between atoms: _621  and  _623
REMARK  235  A    between atoms: _623  and  _624
REMARK  236  A    between atoms: _623  and  _626
REMARK  237  A    between atoms: _626  and  _627
REMARK  238  A    between atoms: _629  and  _631
REMARK  239  A    between atoms: _631  and  _632
REMARK  240  A    between atoms: _631  and  _634
REMARK  241  A    between atoms: _637  and  _639
REMARK  242  A    between atoms: _639  and  _640
REMARK  243  A    between atoms: _639  and  _642
REMARK  244  A    between atoms: _642  and  _643
REMARK  245  A    between atoms: _643  and  _644
REMARK  246  A    between atoms: _644  and  _645
REMARK  247  A    between atoms: _645  and  _646
REMARK  248  A    between atoms: _650  and  _652
REMARK  249  A    between atoms: _652  and  _653
REMARK  250  A    between atoms: _652  and  _655
REMARK  251  A    between atoms: _655  and  _656
REMARK  252  A    between atoms: _662  and  _664
REMARK  253  A    between atoms: _664  and  _665
REMARK  254  A    between atoms: _664  and  _667
REMARK  255  A    between atoms: _667  and  _668
REMARK  256  A    between atoms: _673  and  _675
REMARK  257  A    between atoms: _675  and  _676
REMARK  258  A    between atoms: _675  and  _678
REMARK  259  A    between atoms: _678  and  _679
REMARK  260  A    between atoms: _681  and  _683
REMARK  261  A    between atoms: _683  and  _684
REMARK  262  A    between atoms: _683  and  _686
REMARK  263  A    between atoms: _686  and  _687
REMARK  264  A    between atoms: _689  and  _691
REMARK  265  A    between atoms: _691  and  _692
REMARK  266  A    between atoms: _691  and  _694
REMARK  267  A    between atoms: _698  and  _699
REMARK  268  A    between atoms: _704  and  _706
REMARK  269  A    between atoms: _706  and  _707
REMARK  270  A    between atoms: _706  and  _709
REMARK  271  A    between atoms: _709  and  _710
REMARK  272  A    between atoms: _715  and  _716
REMARK  273  A    between atoms: _718  and  _720
REMARK  274  A    between atoms: _720  and  _721
REMARK  275  A    between atoms: _720  and  _723
REMARK  276  A    between atoms: _723  and  _724
REMARK  277  A    between atoms: _724  and  _725
REMARK  278  A    between atoms: _725  and  _726
REMARK  279  A    between atoms: _735  and  _737
REMARK  280  A    between atoms: _737  and  _738
REMARK  281  A    between atoms: _737  and  _740
REMARK  282  A    between atoms: _740  and  _741
REMARK  283  A    between atoms: _746  and  _747
REMARK  284  A    between atoms: _749  and  _751
REMARK  285  A    between atoms: _751  and  _752
REMARK  286  A    between atoms: _751  and  _754
REMARK  287  A    between atoms: _754  and  _755
REMARK  288  A    between atoms: _761  and  _763
REMARK  289  A    between atoms: _763  and  _764
REMARK  290  A    between atoms: _763  and  _766
REMARK  291  A    between atoms: _766  and  _767
REMARK  292  A    between atoms: _769  and  _771
REMARK  293  A    between atoms: _771  and  _772
REMARK  294  A    between atoms: _771  and  _774
REMARK  295  A    between atoms: _774  and  _775
REMARK  296  A    between atoms: _781  and  _783
REMARK  297  A    between atoms: _783  and  _784
REMARK  298  A    between atoms: _783  and  _786
REMARK  299  A    between atoms: _786  and  _787
REMARK  300  A    between atoms: _787  and  _788
REMARK                            x       y       z     vdW  Elec       q    Type
REMARK                         _______ _______ _______ _____ _____    ______ ____
ROOT
ATOM      1  O   HOH     1      18.861 -14.865 -30.375  0.00  0.00    +0.000 OA
ENDROOT
TORSDOF 0
REMARK  Name = ../refined-set-2016/4ca5/4ca5_pocket.pdb
REMARK  300 active torsions:
REMARK  status: ('A' for Active; 'I' for Inactive)
REMARK    1  A    between atoms: _1  and  _3
REMARK    2  A    between atoms: _3  and  _4
REMARK    3  A    between atoms: _3  and  _6
REMARK    4  A    between atoms: _6  and  _7
REMARK    5  A    between atoms: _12  and  _14
REMARK    6  A    between atoms: _14  and  _15
REMARK    7  A    between atoms: _14  and  _17
REMARK    8  A    between atoms: _17  and  _18
REMARK    9  A    between atoms: _23  and  _25
REMARK   10  A    between atoms: _25  and  _26
REMARK   11  A    between atoms: _25  and  _28
REMARK   12  A    between atoms: _28  and  _29
REMARK   13  A    between atoms: _29  and  _30
REMARK   14  A    between atoms: _33  and  _35
REMARK   15  A    between atoms: _35  and  _36
REMARK   16  A    between atoms: _35  and  _38
REMARK   17  A    between atoms: _38  and  _39
REMARK   18  A    between atoms: _44  and  _45
REMARK   19  A    between atoms: _47  and  _49
REMARK   20  A    between atoms: _49  and  _50
REMARK   21  A    between atoms: _49  and  _52
REMARK   22  A    between atoms: _52  and  _53
REMARK   23  A    between atoms: _53  and  _54
REMARK   24  A    between atoms: _57  and  _59
REMARK   25  A    between atoms: _59  and  _60
REMARK   26  A    between atoms: _59  and  _62
REMARK   27  A    between atoms: _62  and  _63
REMARK   28  A    between atoms: _66  and  _68
REMARK   29  A    between atoms: _68  and  _69
REMARK   30  A    between atoms: _71  and  _73
REMARK   31  A    between atoms: _73  and  _74
REMARK   32  A    between atoms: _73  and  _76
REMARK   33  A    between atoms: _76  and  _77
REMARK   34  A    between atoms: _82  and  _84
REMARK   35  A    between atoms: _84  and  _85
REMARK   36  A    between atoms: _84  and  _87
REMARK   37  A    between atoms: _87  and  _88
REMARK   38  A    between atoms: _88  and  _89
REMARK   39  A    between atoms: _91  and  _93
REMARK   40  A    between atoms: _93  and  _94
REMARK   41  A    between atoms: _93  and  _96
REMARK   42  A    between atoms: _96  and  _97
REMARK   43  A    between atoms: _107  and  _109
REMARK   44  A    between atoms: _109  and  _110
REMARK   45  A    between atoms: _109  and  _112
REMARK   46  A    between atoms: _112  and  _113
REMARK   47  A    between atoms: _113  and  _114
REMARK   48  A    between atoms: _119  and  _121
REMARK   49  A    between atoms: _121  and  _122
REMARK   50  A    between atoms: _121  and  _124
REMARK   51  A    between atoms: _124  and  _125
REMARK   52  A    between atoms: _128  and  _130
REMARK   53  A    between atoms: _130  and  _131
REMARK   54  A    between atoms: _130  and  _133
REMARK   55  A    between atoms: _133  and  _134
REMARK   56  A    between atoms: _144  and  _146
REMARK   57  A    between atoms: _146  and  _147
REMARK   58  A    between atoms: _146  and  _149
REMARK   59  A    between atoms: _149  and  _150
REMARK   60  A    between atoms: _152  and  _154
REMARK   61  A    between atoms: _154  and  _155
REMARK   62  A    between atoms: _154  and  _157
REMARK   63  A    between atoms: _157  and  _158
REMARK   64  A    between atoms: _163  and  _165
REMARK   65  A    between atoms: _165  and  _166
REMARK   66  A    between atoms: _165  and  _168
REMARK   67  A    between atoms: _171  and  _173
REMARK   68  A    between atoms: _173  and  _174
REMARK   69  A    between atoms: _173  and  _176
REMARK   70  A    between atoms: _178  and  _180
REMARK   71  A    between atoms: _180  and  _181
REMARK   72  A    between atoms: _180  and  _183
REMARK   73  A    between atoms: _183  and  _184
REMARK   74  A    between atoms: _189  and  _191
REMARK   75  A    between atoms: _191  and  _192
REMARK   76  A    between atoms: _195  and  _197
REMARK   77  A    between atoms: _197  and  _198
REMARK   78  A    between atoms: _197  and  _200
REMARK   79  A    between atoms: _200  and  _201
REMARK   80  A    between atoms: _203  and  _205
REMARK   81  A    between atoms: _205  and  _206
REMARK   82  A    between atoms: _209  and  _211
REMARK   83  A    between atoms: _211  and  _212
REMARK   84  A    between atoms: _211  and  _214
REMARK   85  A    between atoms: _214  and  _215
REMARK   86  A    between atoms: _225  and  _227
REMARK   87  A    between atoms: _227  and  _228
REMARK   88  A    between atoms: _227  and  _230
REMARK   89  A    between atoms: _230  and  _231
REMARK   90  A    between atoms: _234  and  _236
REMARK   91  A    between atoms: _236  and  _237
REMARK   92  A    between atoms: _236  and  _239
REMARK   93  A    between atoms: _239  and  _240
REMARK   94  A    between atoms: _245  and  _246
REMARK   95  A    between atoms: _248  and  _250
REMARK   96  A    between atoms: _250  and  _251
REMARK   97  A    between atoms: _250  and  _253
REMARK   98  A    between atoms: _253  and  _254
REMARK   99  A    between atoms: _254  and  _255
REMARK  100  A    between atoms: _255  and  _256
REMARK  101  A    between atoms: _265  and  _267
REMARK  102  A    between atoms: _267  and  _268
REMARK  103  A    between atoms: _267  and  _270
REMARK  104  A    between atoms: _270  and  _271
REMARK  105  A    between atoms: _274  and  _276
REMARK  106  A    between atoms: _276  and  _277
REMARK  107  A    between atoms: _276  and  _279
REMARK  108  A    between atoms: _279  and  _280
REMARK  109  A    between atoms: _280  and  _281
REMARK  110  A    between atoms: _281  and  _282
REMARK  111  A    between atoms: _282  and  _283
REMARK  112  A    between atoms: _287  and  _289
REMARK  113  A    between atoms: _289  and  _290
REMARK  114  A    between atoms: _289  and  _292
REMARK  115  A    between atoms: _292  and  _293
REMARK  116  A    between atoms: _293  and  _294
REMARK  117  A    between atoms: _299  and  _301
REMARK  118  A    between atoms: _301  and  _302
REMARK  119  A    between atoms: _301  and  _304
REMARK  120  A    between atoms: _304  and  _305
REMARK  121  A    between atoms: _310  and  _312
REMARK  122  A    between atoms: _312  and  _313
REMARK  123  A    between atoms: _312  and  _315
REMARK  124  A    between atoms: _315  and  _316
REMARK  125  A    between atoms: _319  and  _321
REMARK  126  A    between atoms: _321  and  _322
REMARK  127  A    between atoms: _321  and  _324
REMARK  128  A    between atoms: _324  and  _325
REMARK  129  A    between atoms: _325  and  _326
REMARK  130  A    between atoms: _329  and  _331
REMARK  131  A    between atoms: _331  and  _332
REMARK  132  A    between atoms: _331  and  _334
REMARK  133  A    between atoms: _334  and  _335
REMARK  134  A    between atoms: _338  and  _340
REMARK  135  A    between atoms: _340  and  _341
REMARK  136  A    between atoms: _340  and  _343
REMARK  137  A    between atoms: _346  and  _348
REMARK  138  A    between atoms: _348  and  _349
REMARK  139  A    between atoms: _348  and  _351
REMARK  140  A    between atoms: _354  and  _356
REMARK  141  A    between atoms: _356  and  _357
REMARK  142  A    between atoms: _360  and  _362
REMARK  143  A    between atoms: _362  and  _363
REMARK  144  A    between atoms: _362  and  _365
REMARK  145  A    between atoms: _365  and  _366
REMARK  146  A    between atoms: _371  and  _373
REMARK  147  A    between atoms: _384  and  _387
REMARK  148  A    between atoms: _387  and  _388
REMARK  149  A    between atoms: _388  and  _389
REMARK  150  A    between atoms: _394  and  _397
REMARK  151  A    between atoms: _397  and  _398
REMARK  152  A    between atoms: _398  and  _399
REMARK  153  A    between atoms: _408  and  _409
REMARK  154  A    between atoms: _417  and  _419
REMARK  155  A    between atoms: _419  and  _420
REMARK  156  A    between atoms: _419  and  _422
REMARK  157  A    between atoms: _422  and  _423
REMARK  158  A    between atoms: _426  and  _428
REMARK  159  A    between atoms: _428  and  _429
REMARK  160  A    between atoms: _428  and  _431
REMARK  161  A    between atoms: _431  and  _432
REMARK  162  A    between atoms: _437  and  _438
REMARK  163  A    between atoms: _440  and  _442
REMARK  164  A    between atoms: _442  and  _443
REMARK  165  A    between atoms: _442  and  _445
REMARK  166  A    between atoms: _445  and  _446
REMARK  167  A    between atoms: _452  and  _454
REMARK  168  A    between atoms: _454  and  _455
REMARK  169  A    between atoms: _454  and  _457
REMARK  170  A    between atoms: _457  and  _458
REMARK  171  A    between atoms: _463  and  _464
REMARK  172  A    between atoms: _466  and  _468
REMARK  173  A    between atoms: _468  and  _469
REMARK  174  A    between atoms: _468  and  _471
REMARK  175  A    between atoms: _471  and  _472
REMARK  176  A    between atoms: _472  and  _473
REMARK  177  A    between atoms: _473  and  _474
REMARK  178  A    between atoms: _483  and  _485
REMARK  179  A    between atoms: _485  and  _486
REMARK  180  A    between atoms: _485  and  _488
REMARK  181  A    between atoms: _488  and  _489
REMARK  182  A    between atoms: _489  and  _490
REMARK  183  A    between atoms: _493  and  _495
REMARK  184  A    between atoms: _495  and  _496
REMARK  185  A    between atoms: _498  and  _500
REMARK  186  A    between atoms: _500  and  _501
REMARK  187  A    between atoms: _500  and  _503
REMARK  188  A    between atoms: _503  and  _504
REMARK  189  A    between atoms: _510  and  _511
REMARK  190  A    between atoms: _516  and  _518
REMARK  191  A    between atoms: _518  and  _519
REMARK  192  A    between atoms: _521  and  _523
REMARK  193  A    between atoms: _523  and  _524
REMARK  194  A    between atoms: _523  and  _526
REMARK  195  A    between atoms: _526  and  _527
REMARK  196  A    between atoms: _533  and  _535
REMARK  197  A    between atoms: _535  and  _536
REMARK  198  A    between atoms: _535  and  _538
REMARK  199  A    between atoms: _538  and  _539
REMARK  200  A    between atoms: _544  and  _546
REMARK  201  A    between atoms: _546  and  _547
REMARK  202  A    between atoms: _546  and  _549
REMARK  203  A    between atoms: _549  and  _550
REMARK  204  A    between atoms: _550  and  _551
REMARK  205  A    between atoms: _551  and  _552
REMARK  206  A    between atoms: _552  and  ZN_793
REMARK  207  A    between atoms: _554  and  _556
REMARK  208  A    between atoms: _556  and  _557
REMARK  209  A    between atoms: _560  and  _562
REMARK  210  A    between atoms: _562  and  _563
REMARK  211  A    between atoms: _562  and  _565
REMARK  212  A    between atoms: _565  and  _566
REMARK  213  A    between atoms: _569  and  _571
REMARK  214  A    between atoms: _571  and  _572
REMARK  215  A    between atoms: _575  and  _577
REMARK  216  A    between atoms: _577  and  _578
REMARK  217  A    between atoms: _577  and  _580
REMARK  218  A    between atoms: _580  and  _581
REMARK  219  A    between atoms: _584  and  _586
REMARK  220  A    between atoms: _586  and  _587
REMARK  221  A    between atoms: _586  and  _589
REMARK  222  A    between atoms: _589  and  _590
REMARK  223  A    between atoms: _590  and  _591
REMARK  224  A    between atoms: _591  and  _592
REMARK  225  A    between atoms: _592  and  _593
REMARK  226  A    between atoms: _597  and  _599
REMARK  227  A    between atoms: _599  and  _600
REMARK  228  A    between atoms: _599  and  _602
REMARK  229  A    between atoms: _602  and  _603
REMARK  230  A    between atoms: _609  and  _611
REMARK  231  A    between atoms: _611  and  _612
REMARK  232  A    between atoms: _611  and  _614
REMARK  233  A    between atoms: _614  and  _615
REMARK  234  A    between atoms: _621  and  _623
REMARK  235  A    between atoms: _623  and  _624
REMARK  236  A    between atoms: _623  and  _626
REMARK  237  A    between atoms: _626  and  _627
REMARK  238  A    between atoms: _629  and  _631
REMARK  239  A    between atoms: _631  and  _632
REMARK  240  A    between atoms: _631  and  _634
REMARK  241  A    between atoms: _637  and  _639
REMARK  242  A    between atoms: _639  and  _640
REMARK  243  A    between atoms: _639  and  _642
REMARK  244  A    between atoms: _642  and  _643
REMARK  245  A    between atoms: _643  and  _644
REMARK  246  A    between atoms: _644  and  _645
REMARK  247  A    between atoms: _645  and  _646
REMARK  248  A    between atoms: _650  and  _652
REMARK  249  A    between atoms: _652  and  _653
REMARK  250  A    between atoms: _652  and  _655
REMARK  251  A    between atoms: _655  and  _656
REMARK  252  A    between atoms: _662  and  _664
REMARK  253  A    between atoms: _664  and  _665
REMARK  254  A    between atoms: _664  and  _667
REMARK  255  A    between atoms: _667  and  _668
REMARK  256  A    between atoms: _673  and  _675
REMARK  257  A    between atoms: _675  and  _676
REMARK  258  A    between atoms: _675  and  _678
REMARK  259  A    between atoms: _678  and  _679
REMARK  260  A    between atoms: _681  and  _683
REMARK  261  A    between atoms: _683  and  _684
REMARK  262  A    between atoms: _683  and  _686
REMARK  263  A    between atoms: _686  and  _687
REMARK  264  A    between atoms: _689  and  _691
REMARK  265  A    between atoms: _691  and  _692
REMARK  266  A    between atoms: _691  and  _694
REMARK  267  A    between atoms: _698  and  _699
REMARK  268  A    between atoms: _704  and  _706
REMARK  269  A    between atoms: _706  and  _707
REMARK  270  A    between atoms: _706  and  _709
REMARK  271  A    between atoms: _709  and  _710
REMARK  272  A    between atoms: _715  and  _716
REMARK  273  A    between atoms: _718  and  _720
REMARK  274  A    between atoms: _720  and  _721
REMARK  275  A    between atoms: _720  and  _723
REMARK  276  A    between atoms: _723  and  _724
REMARK  277  A    between atoms: _724  and  _725
REMARK  278  A    between atoms: _725  and  _726
REMARK  279  A    between atoms: _735  and  _737
REMARK  280  A    between atoms: _737  and  _738
REMARK  281  A    between atoms: _737  and  _740
REMARK  282  A    between atoms: _740  and  _741
REMARK  283  A    between atoms: _746  and  _747
REMARK  284  A    between atoms: _749  and  _751
REMARK  285  A    between atoms: _751  and  _752
REMARK  286  A    between atoms: _751  and  _754
REMARK  287  A    between atoms: _754  and  _755
REMARK  288  A    between atoms: _761  and  _763
REMARK  289  A    between atoms: _763  and  _764
REMARK  290  A    between atoms: _763  and  _766
REMARK  291  A    between atoms: _766  and  _767
REMARK  292  A    between atoms: _769  and  _771
REMARK  293  A    between atoms: _771  and  _772
REMARK  294  A    between atoms: _771  and  _774
REMARK  295  A    between atoms: _774  and  _775
REMARK  296  A    between atoms: _781  and  _783
REMARK  297  A    between atoms: _783  and  _784
REMARK  298  A    between atoms: _783  and  _786
REMARK  299  A    between atoms: _786  and  _787
REMARK  300  A    between atoms: _787  and  _788
REMARK                            x       y       z     vdW  Elec       q    Type
REMARK                         _______ _______ _______ _____ _____    ______ ____
ROOT
ATOM      1  O   HOH     1      19.651 -19.595 -29.489  0.00  0.00    +0.000 OA
ENDROOT
TORSDOF 0
REMARK  Name = ../refined-set-2016/4ca5/4ca5_pocket.pdb
REMARK  300 active torsions:
REMARK  status: ('A' for Active; 'I' for Inactive)
REMARK    1  A    between atoms: _1  and  _3
REMARK    2  A    between atoms: _3  and  _4
REMARK    3  A    between atoms: _3  and  _6
REMARK    4  A    between atoms: _6  and  _7
REMARK    5  A    between atoms: _12  and  _14
REMARK    6  A    between atoms: _14  and  _15
REMARK    7  A    between atoms: _14  and  _17
REMARK    8  A    between atoms: _17  and  _18
REMARK    9  A    between atoms: _23  and  _25
REMARK   10  A    between atoms: _25  and  _26
REMARK   11  A    between atoms: _25  and  _28
REMARK   12  A    between atoms: _28  and  _29
REMARK   13  A    between atoms: _29  and  _30
REMARK   14  A    between atoms: _33  and  _35
REMARK   15  A    between atoms: _35  and  _36
REMARK   16  A    between atoms: _35  and  _38
REMARK   17  A    between atoms: _38  and  _39
REMARK   18  A    between atoms: _44  and  _45
REMARK   19  A    between atoms: _47  and  _49
REMARK   20  A    between atoms: _49  and  _50
REMARK   21  A    between atoms: _49  and  _52
REMARK   22  A    between atoms: _52  and  _53
REMARK   23  A    between atoms: _53  and  _54
REMARK   24  A    between atoms: _57  and  _59
REMARK   25  A    between atoms: _59  and  _60
REMARK   26  A    between atoms: _59  and  _62
REMARK   27  A    between atoms: _62  and  _63
REMARK   28  A    between atoms: _66  and  _68
REMARK   29  A    between atoms: _68  and  _69
REMARK   30  A    between atoms: _71  and  _73
REMARK   31  A    between atoms: _73  and  _74
REMARK   32  A    between atoms: _73  and  _76
REMARK   33  A    between atoms: _76  and  _77
REMARK   34  A    between atoms: _82  and  _84
REMARK   35  A    between atoms: _84  and  _85
REMARK   36  A    between atoms: _84  and  _87
REMARK   37  A    between atoms: _87  and  _88
REMARK   38  A    between atoms: _88  and  _89
REMARK   39  A    between atoms: _91  and  _93
REMARK   40  A    between atoms: _93  and  _94
REMARK   41  A    between atoms: _93  and  _96
REMARK   42  A    between atoms: _96  and  _97
REMARK   43  A    between atoms: _107  and  _109
REMARK   44  A    between atoms: _109  and  _110
REMARK   45  A    between atoms: _109  and  _112
REMARK   46  A    between atoms: _112  and  _113
REMARK   47  A    between atoms: _113  and  _114
REMARK   48  A    between atoms: _119  and  _121
REMARK   49  A    between atoms: _121  and  _122
REMARK   50  A    between atoms: _121  and  _124
REMARK   51  A    between atoms: _124  and  _125
REMARK   52  A    between atoms: _128  and  _130
REMARK   53  A    between atoms: _130  and  _131
REMARK   54  A    between atoms: _130  and  _133
REMARK   55  A    between atoms: _133  and  _134
REMARK   56  A    between atoms: _144  and  _146
REMARK   57  A    between atoms: _146  and  _147
REMARK   58  A    between atoms: _146  and  _149
REMARK   59  A    between atoms: _149  and  _150
REMARK   60  A    between atoms: _152  and  _154
REMARK   61  A    between atoms: _154  and  _155
REMARK   62  A    between atoms: _154  and  _157
REMARK   63  A    between atoms: _157  and  _158
REMARK   64  A    between atoms: _163  and  _165
REMARK   65  A    between atoms: _165  and  _166
REMARK   66  A    between atoms: _165  and  _168
REMARK   67  A    between atoms: _171  and  _173
REMARK   68  A    between atoms: _173  and  _174
REMARK   69  A    between atoms: _173  and  _176
REMARK   70  A    between atoms: _178  and  _180
REMARK   71  A    between atoms: _180  and  _181
REMARK   72  A    between atoms: _180  and  _183
REMARK   73  A    between atoms: _183  and  _184
REMARK   74  A    between atoms: _189  and  _191
REMARK   75  A    between atoms: _191  and  _192
REMARK   76  A    between atoms: _195  and  _197
REMARK   77  A    between atoms: _197  and  _198
REMARK   78  A    between atoms: _197  and  _200
REMARK   79  A    between atoms: _200  and  _201
REMARK   80  A    between atoms: _203  and  _205
REMARK   81  A    between atoms: _205  and  _206
REMARK   82  A    between atoms: _209  and  _211
REMARK   83  A    between atoms: _211  and  _212
REMARK   84  A    between atoms: _211  and  _214
REMARK   85  A    between atoms: _214  and  _215
REMARK   86  A    between atoms: _225  and  _227
REMARK   87  A    between atoms: _227  and  _228
REMARK   88  A    between atoms: _227  and  _230
REMARK   89  A    between atoms: _230  and  _231
REMARK   90  A    between atoms: _234  and  _236
REMARK   91  A    between atoms: _236  and  _237
REMARK   92  A    between atoms: _236  and  _239
REMARK   93  A    between atoms: _239  and  _240
REMARK   94  A    between atoms: _245  and  _246
REMARK   95  A    between atoms: _248  and  _250
REMARK   96  A    between atoms: _250  and  _251
REMARK   97  A    between atoms: _250  and  _253
REMARK   98  A    between atoms: _253  and  _254
REMARK   99  A    between atoms: _254  and  _255
REMARK  100  A    between atoms: _255  and  _256
REMARK  101  A    between atoms: _265  and  _267
REMARK  102  A    between atoms: _267  and  _268
REMARK  103  A    between atoms: _267  and  _270
REMARK  104  A    between atoms: _270  and  _271
REMARK  105  A    between atoms: _274  and  _276
REMARK  106  A    between atoms: _276  and  _277
REMARK  107  A    between atoms: _276  and  _279
REMARK  108  A    between atoms: _279  and  _280
REMARK  109  A    between atoms: _280  and  _281
REMARK  110  A    between atoms: _281  and  _282
REMARK  111  A    between atoms: _282  and  _283
REMARK  112  A    between atoms: _287  and  _289
REMARK  113  A    between atoms: _289  and  _290
REMARK  114  A    between atoms: _289  and  _292
REMARK  115  A    between atoms: _292  and  _293
REMARK  116  A    between atoms: _293  and  _294
REMARK  117  A    between atoms: _299  and  _301
REMARK  118  A    between atoms: _301  and  _302
REMARK  119  A    between atoms: _301  and  _304
REMARK  120  A    between atoms: _304  and  _305
REMARK  121  A    between atoms: _310  and  _312
REMARK  122  A    between atoms: _312  and  _313
REMARK  123  A    between atoms: _312  and  _315
REMARK  124  A    between atoms: _315  and  _316
REMARK  125  A    between atoms: _319  and  _321
REMARK  126  A    between atoms: _321  and  _322
REMARK  127  A    between atoms: _321  and  _324
REMARK  128  A    between atoms: _324  and  _325
REMARK  129  A    between atoms: _325  and  _326
REMARK  130  A    between atoms: _329  and  _331
REMARK  131  A    between atoms: _331  and  _332
REMARK  132  A    between atoms: _331  and  _334
REMARK  133  A    between atoms: _334  and  _335
REMARK  134  A    between atoms: _338  and  _340
REMARK  135  A    between atoms: _340  and  _341
REMARK  136  A    between atoms: _340  and  _343
REMARK  137  A    between atoms: _346  and  _348
REMARK  138  A    between atoms: _348  and  _349
REMARK  139  A    between atoms: _348  and  _351
REMARK  140  A    between atoms: _354  and  _356
REMARK  141  A    between atoms: _356  and  _357
REMARK  142  A    between atoms: _360  and  _362
REMARK  143  A    between atoms: _362  and  _363
REMARK  144  A    between atoms: _362  and  _365
REMARK  145  A    between atoms: _365  and  _366
REMARK  146  A    between atoms: _371  and  _373
REMARK  147  A    between atoms: _384  and  _387
REMARK  148  A    between atoms: _387  and  _388
REMARK  149  A    between atoms: _388  and  _389
REMARK  150  A    between atoms: _394  and  _397
REMARK  151  A    between atoms: _397  and  _398
REMARK  152  A    between atoms: _398  and  _399
REMARK  153  A    between atoms: _408  and  _409
REMARK  154  A    between atoms: _417  and  _419
REMARK  155  A    between atoms: _419  and  _420
REMARK  156  A    between atoms: _419  and  _422
REMARK  157  A    between atoms: _422  and  _423
REMARK  158  A    between atoms: _426  and  _428
REMARK  159  A    between atoms: _428  and  _429
REMARK  160  A    between atoms: _428  and  _431
REMARK  161  A    between atoms: _431  and  _432
REMARK  162  A    between atoms: _437  and  _438
REMARK  163  A    between atoms: _440  and  _442
REMARK  164  A    between atoms: _442  and  _443
REMARK  165  A    between atoms: _442  and  _445
REMARK  166  A    between atoms: _445  and  _446
REMARK  167  A    between atoms: _452  and  _454
REMARK  168  A    between atoms: _454  and  _455
REMARK  169  A    between atoms: _454  and  _457
REMARK  170  A    between atoms: _457  and  _458
REMARK  171  A    between atoms: _463  and  _464
REMARK  172  A    between atoms: _466  and  _468
REMARK  173  A    between atoms: _468  and  _469
REMARK  174  A    between atoms: _468  and  _471
REMARK  175  A    between atoms: _471  and  _472
REMARK  176  A    between atoms: _472  and  _473
REMARK  177  A    between atoms: _473  and  _474
REMARK  178  A    between atoms: _483  and  _485
REMARK  179  A    between atoms: _485  and  _486
REMARK  180  A    between atoms: _485  and  _488
REMARK  181  A    between atoms: _488  and  _489
REMARK  182  A    between atoms: _489  and  _490
REMARK  183  A    between atoms: _493  and  _495
REMARK  184  A    between atoms: _495  and  _496
REMARK  185  A    between atoms: _498  and  _500
REMARK  186  A    between atoms: _500  and  _501
REMARK  187  A    between atoms: _500  and  _503
REMARK  188  A    between atoms: _503  and  _504
REMARK  189  A    between atoms: _510  and  _511
REMARK  190  A    between atoms: _516  and  _518
REMARK  191  A    between atoms: _518  and  _519
REMARK  192  A    between atoms: _521  and  _523
REMARK  193  A    between atoms: _523  and  _524
REMARK  194  A    between atoms: _523  and  _526
REMARK  195  A    between atoms: _526  and  _527
REMARK  196  A    between atoms: _533  and  _535
REMARK  197  A    between atoms: _535  and  _536
REMARK  198  A    between atoms: _535  and  _538
REMARK  199  A    between atoms: _538  and  _539
REMARK  200  A    between atoms: _544  and  _546
REMARK  201  A    between atoms: _546  and  _547
REMARK  202  A    between atoms: _546  and  _549
REMARK  203  A    between atoms: _549  and  _550
REMARK  204  A    between atoms: _550  and  _551
REMARK  205  A    between atoms: _551  and  _552
REMARK  206  A    between atoms: _552  and  ZN_793
REMARK  207  A    between atoms: _554  and  _556
REMARK  208  A    between atoms: _556  and  _557
REMARK  209  A    between atoms: _560  and  _562
REMARK  210  A    between atoms: _562  and  _563
REMARK  211  A    between atoms: _562  and  _565
REMARK  212  A    between atoms: _565  and  _566
REMARK  213  A    between atoms: _569  and  _571
REMARK  214  A    between atoms: _571  and  _572
REMARK  215  A    between atoms: _575  and  _577
REMARK  216  A    between atoms: _577  and  _578
REMARK  217  A    between atoms: _577  and  _580
REMARK  218  A    between atoms: _580  and  _581
REMARK  219  A    between atoms: _584  and  _586
REMARK  220  A    between atoms: _586  and  _587
REMARK  221  A    between atoms: _586  and  _589
REMARK  222  A    between atoms: _589  and  _590
REMARK  223  A    between atoms: _590  and  _591
REMARK  224  A    between atoms: _591  and  _592
REMARK  225  A    between atoms: _592  and  _593
REMARK  226  A    between atoms: _597  and  _599
REMARK  227  A    between atoms: _599  and  _600
REMARK  228  A    between atoms: _599  and  _602
REMARK  229  A    between atoms: _602  and  _603
REMARK  230  A    between atoms: _609  and  _611
REMARK  231  A    between atoms: _611  and  _612
REMARK  232  A    between atoms: _611  and  _614
REMARK  233  A    between atoms: _614  and  _615
REMARK  234  A    between atoms: _621  and  _623
REMARK  235  A    between atoms: _623  and  _624
REMARK  236  A    between atoms: _623  and  _626
REMARK  237  A    between atoms: _626  and  _627
REMARK  238  A    between atoms: _629  and  _631
REMARK  239  A    between atoms: _631  and  _632
REMARK  240  A    between atoms: _631  and  _634
REMARK  241  A    between atoms: _637  and  _639
REMARK  242  A    between atoms: _639  and  _640
REMARK  243  A    between atoms: _639  and  _642
REMARK  244  A    between atoms: _642  and  _643
REMARK  245  A    between atoms: _643  and  _644
REMARK  246  A    between atoms: _644  and  _645
REMARK  247  A    between atoms: _645  and  _646
REMARK  248  A    between atoms: _650  and  _652
REMARK  249  A    between atoms: _652  and  _653
REMARK  250  A    between atoms: _652  and  _655
REMARK  251  A    between atoms: _655  and  _656
REMARK  252  A    between atoms: _662  and  _664
REMARK  253  A    between atoms: _664  and  _665
REMARK  254  A    between atoms: _664  and  _667
REMARK  255  A    between atoms: _667  and  _668
REMARK  256  A    between atoms: _673  and  _675
REMARK  257  A    between atoms: _675  and  _676
REMARK  258  A    between atoms: _675  and  _678
REMARK  259  A    between atoms: _678  and  _679
REMARK  260  A    between atoms: _681  and  _683
REMARK  261  A    between atoms: _683  and  _684
REMARK  262  A    between atoms: _683  and  _686
REMARK  263  A    between atoms: _686  and  _687
REMARK  264  A    between atoms: _689  and  _691
REMARK  265  A    between atoms: _691  and  _692
REMARK  266  A    between atoms: _691  and  _694
REMARK  267  A    between atoms: _698  and  _699
REMARK  268  A    between atoms: _704  and  _706
REMARK  269  A    between atoms: _706  and  _707
REMARK  270  A    between atoms: _706  and  _709
REMARK  271  A    between atoms: _709  and  _710
REMARK  272  A    between atoms: _715  and  _716
REMARK  273  A    between atoms: _718  and  _720
REMARK  274  A    between atoms: _720  and  _721
REMARK  275  A    between atoms: _720  and  _723
REMARK  276  A    between atoms: _723  and  _724
REMARK  277  A    between atoms: _724  and  _725
REMARK  278  A    between atoms: _725  and  _726
REMARK  279  A    between atoms: _735  and  _737
REMARK  280  A    between atoms: _737  and  _738
REMARK  281  A    between atoms: _737  and  _740
REMARK  282  A    between atoms: _740  and  _741
REMARK  283  A    between atoms: _746  and  _747
REMARK  284  A    between atoms: _749  and  _751
REMARK  285  A    between atoms: _751  and  _752
REMARK  286  A    between atoms: _751  and  _754
REMARK  287  A    between atoms: _754  and  _755
REMARK  288  A    between atoms: _761  and  _763
REMARK  289  A    between atoms: _763  and  _764
REMARK  290  A    between atoms: _763  and  _766
REMARK  291  A    between atoms: _766  and  _767
REMARK  292  A    between atoms: _769  and  _771
REMARK  293  A    between atoms: _771  and  _772
REMARK  294  A    between atoms: _771  and  _774
REMARK  295  A    between atoms: _774  and  _775
REMARK  296  A    between atoms: _781  and  _783
REMARK  297  A    between atoms: _783  and  _784
REMARK  298  A    between atoms: _783  and  _786
REMARK  299  A    between atoms: _786  and  _787
REMARK  300  A    between atoms: _787  and  _788
REMARK                            x       y       z     vdW  Elec       q    Type
REMARK                         _______ _______ _______ _____ _____    ______ ____
ROOT
ATOM      1  O   HOH     1      14.663 -17.221 -28.289  0.00  0.00    +0.000 OA
ENDROOT
TORSDOF 0
REMARK  Name = ../refined-set-2016/4ca5/4ca5_pocket.pdb
REMARK  300 active torsions:
REMARK  status: ('A' for Active; 'I' for Inactive)
REMARK    1  A    between atoms: _1  and  _3
REMARK    2  A    between atoms: _3  and  _4
REMARK    3  A    between atoms: _3  and  _6
REMARK    4  A    between atoms: _6  and  _7
REMARK    5  A    between atoms: _12  and  _14
REMARK    6  A    between atoms: _14  and  _15
REMARK    7  A    between atoms: _14  and  _17
REMARK    8  A    between atoms: _17  and  _18
REMARK    9  A    between atoms: _23  and  _25
REMARK   10  A    between atoms: _25  and  _26
REMARK   11  A    between atoms: _25  and  _28
REMARK   12  A    between atoms: _28  and  _29
REMARK   13  A    between atoms: _29  and  _30
REMARK   14  A    between atoms: _33  and  _35
REMARK   15  A    between atoms: _35  and  _36
REMARK   16  A    between atoms: _35  and  _38
REMARK   17  A    between atoms: _38  and  _39
REMARK   18  A    between atoms: _44  and  _45
REMARK   19  A    between atoms: _47  and  _49
REMARK   20  A    between atoms: _49  and  _50
REMARK   21  A    between atoms: _49  and  _52
REMARK   22  A    between atoms: _52  and  _53
REMARK   23  A    between atoms: _53  and  _54
REMARK   24  A    between atoms: _57  and  _59
REMARK   25  A    between atoms: _59  and  _60
REMARK   26  A    between atoms: _59  and  _62
REMARK   27  A    between atoms: _62  and  _63
REMARK   28  A    between atoms: _66  and  _68
REMARK   29  A    between atoms: _68  and  _69
REMARK   30  A    between atoms: _71  and  _73
REMARK   31  A    between atoms: _73  and  _74
REMARK   32  A    between atoms: _73  and  _76
REMARK   33  A    between atoms: _76  and  _77
REMARK   34  A    between atoms: _82  and  _84
REMARK   35  A    between atoms: _84  and  _85
REMARK   36  A    between atoms: _84  and  _87
REMARK   37  A    between atoms: _87  and  _88
REMARK   38  A    between atoms: _88  and  _89
REMARK   39  A    between atoms: _91  and  _93
REMARK   40  A    between atoms: _93  and  _94
REMARK   41  A    between atoms: _93  and  _96
REMARK   42  A    between atoms: _96  and  _97
REMARK   43  A    between atoms: _107  and  _109
REMARK   44  A    between atoms: _109  and  _110
REMARK   45  A    between atoms: _109  and  _112
REMARK   46  A    between atoms: _112  and  _113
REMARK   47  A    between atoms: _113  and  _114
REMARK   48  A    between atoms: _119  and  _121
REMARK   49  A    between atoms: _121  and  _122
REMARK   50  A    between atoms: _121  and  _124
REMARK   51  A    between atoms: _124  and  _125
REMARK   52  A    between atoms: _128  and  _130
REMARK   53  A    between atoms: _130  and  _131
REMARK   54  A    between atoms: _130  and  _133
REMARK   55  A    between atoms: _133  and  _134
REMARK   56  A    between atoms: _144  and  _146
REMARK   57  A    between atoms: _146  and  _147
REMARK   58  A    between atoms: _146  and  _149
REMARK   59  A    between atoms: _149  and  _150
REMARK   60  A    between atoms: _152  and  _154
REMARK   61  A    between atoms: _154  and  _155
REMARK   62  A    between atoms: _154  and  _157
REMARK   63  A    between atoms: _157  and  _158
REMARK   64  A    between atoms: _163  and  _165
REMARK   65  A    between atoms: _165  and  _166
REMARK   66  A    between atoms: _165  and  _168
REMARK   67  A    between atoms: _171  and  _173
REMARK   68  A    between atoms: _173  and  _174
REMARK   69  A    between atoms: _173  and  _176
REMARK   70  A    between atoms: _178  and  _180
REMARK   71  A    between atoms: _180  and  _181
REMARK   72  A    between atoms: _180  and  _183
REMARK   73  A    between atoms: _183  and  _184
REMARK   74  A    between atoms: _189  and  _191
REMARK   75  A    between atoms: _191  and  _192
REMARK   76  A    between atoms: _195  and  _197
REMARK   77  A    between atoms: _197  and  _198
REMARK   78  A    between atoms: _197  and  _200
REMARK   79  A    between atoms: _200  and  _201
REMARK   80  A    between atoms: _203  and  _205
REMARK   81  A    between atoms: _205  and  _206
REMARK   82  A    between atoms: _209  and  _211
REMARK   83  A    between atoms: _211  and  _212
REMARK   84  A    between atoms: _211  and  _214
REMARK   85  A    between atoms: _214  and  _215
REMARK   86  A    between atoms: _225  and  _227
REMARK   87  A    between atoms: _227  and  _228
REMARK   88  A    between atoms: _227  and  _230
REMARK   89  A    between atoms: _230  and  _231
REMARK   90  A    between atoms: _234  and  _236
REMARK   91  A    between atoms: _236  and  _237
REMARK   92  A    between atoms: _236  and  _239
REMARK   93  A    between atoms: _239  and  _240
REMARK   94  A    between atoms: _245  and  _246
REMARK   95  A    between atoms: _248  and  _250
REMARK   96  A    between atoms: _250  and  _251
REMARK   97  A    between atoms: _250  and  _253
REMARK   98  A    between atoms: _253  and  _254
REMARK   99  A    between atoms: _254  and  _255
REMARK  100  A    between atoms: _255  and  _256
REMARK  101  A    between atoms: _265  and  _267
REMARK  102  A    between atoms: _267  and  _268
REMARK  103  A    between atoms: _267  and  _270
REMARK  104  A    between atoms: _270  and  _271
REMARK  105  A    between atoms: _274  and  _276
REMARK  106  A    between atoms: _276  and  _277
REMARK  107  A    between atoms: _276  and  _279
REMARK  108  A    between atoms: _279  and  _280
REMARK  109  A    between atoms: _280  and  _281
REMARK  110  A    between atoms: _281  and  _282
REMARK  111  A    between atoms: _282  and  _283
REMARK  112  A    between atoms: _287  and  _289
REMARK  113  A    between atoms: _289  and  _290
REMARK  114  A    between atoms: _289  and  _292
REMARK  115  A    between atoms: _292  and  _293
REMARK  116  A    between atoms: _293  and  _294
REMARK  117  A    between atoms: _299  and  _301
REMARK  118  A    between atoms: _301  and  _302
REMARK  119  A    between atoms: _301  and  _304
REMARK  120  A    between atoms: _304  and  _305
REMARK  121  A    between atoms: _310  and  _312
REMARK  122  A    between atoms: _312  and  _313
REMARK  123  A    between atoms: _312  and  _315
REMARK  124  A    between atoms: _315  and  _316
REMARK  125  A    between atoms: _319  and  _321
REMARK  126  A    between atoms: _321  and  _322
REMARK  127  A    between atoms: _321  and  _324
REMARK  128  A    between atoms: _324  and  _325
REMARK  129  A    between atoms: _325  and  _326
REMARK  130  A    between atoms: _329  and  _331
REMARK  131  A    between atoms: _331  and  _332
REMARK  132  A    between atoms: _331  and  _334
REMARK  133  A    between atoms: _334  and  _335
REMARK  134  A    between atoms: _338  and  _340
REMARK  135  A    between atoms: _340  and  _341
REMARK  136  A    between atoms: _340  and  _343
REMARK  137  A    between atoms: _346  and  _348
REMARK  138  A    between atoms: _348  and  _349
REMARK  139  A    between atoms: _348  and  _351
REMARK  140  A    between atoms: _354  and  _356
REMARK  141  A    between atoms: _356  and  _357
REMARK  142  A    between atoms: _360  and  _362
REMARK  143  A    between atoms: _362  and  _363
REMARK  144  A    between atoms: _362  and  _365
REMARK  145  A    between atoms: _365  and  _366
REMARK  146  A    between atoms: _371  and  _373
REMARK  147  A    between atoms: _384  and  _387
REMARK  148  A    between atoms: _387  and  _388
REMARK  149  A    between atoms: _388  and  _389
REMARK  150  A    between atoms: _394  and  _397
REMARK  151  A    between atoms: _397  and  _398
REMARK  152  A    between atoms: _398  and  _399
REMARK  153  A    between atoms: _408  and  _409
REMARK  154  A    between atoms: _417  and  _419
REMARK  155  A    between atoms: _419  and  _420
REMARK  156  A    between atoms: _419  and  _422
REMARK  157  A    between atoms: _422  and  _423
REMARK  158  A    between atoms: _426  and  _428
REMARK  159  A    between atoms: _428  and  _429
REMARK  160  A    between atoms: _428  and  _431
REMARK  161  A    between atoms: _431  and  _432
REMARK  162  A    between atoms: _437  and  _438
REMARK  163  A    between atoms: _440  and  _442
REMARK  164  A    between atoms: _442  and  _443
REMARK  165  A    between atoms: _442  and  _445
REMARK  166  A    between atoms: _445  and  _446
REMARK  167  A    between atoms: _452  and  _454
REMARK  168  A    between atoms: _454  and  _455
REMARK  169  A    between atoms: _454  and  _457
REMARK  170  A    between atoms: _457  and  _458
REMARK  171  A    between atoms: _463  and  _464
REMARK  172  A    between atoms: _466  and  _468
REMARK  173  A    between atoms: _468  and  _469
REMARK  174  A    between atoms: _468  and  _471
REMARK  175  A    between atoms: _471  and  _472
REMARK  176  A    between atoms: _472  and  _473
REMARK  177  A    between atoms: _473  and  _474
REMARK  178  A    between atoms: _483  and  _485
REMARK  179  A    between atoms: _485  and  _486
REMARK  180  A    between atoms: _485  and  _488
REMARK  181  A    between atoms: _488  and  _489
REMARK  182  A    between atoms: _489  and  _490
REMARK  183  A    between atoms: _493  and  _495
REMARK  184  A    between atoms: _495  and  _496
REMARK  185  A    between atoms: _498  and  _500
REMARK  186  A    between atoms: _500  and  _501
REMARK  187  A    between atoms: _500  and  _503
REMARK  188  A    between atoms: _503  and  _504
REMARK  189  A    between atoms: _510  and  _511
REMARK  190  A    between atoms: _516  and  _518
REMARK  191  A    between atoms: _518  and  _519
REMARK  192  A    between atoms: _521  and  _523
REMARK  193  A    between atoms: _523  and  _524
REMARK  194  A    between atoms: _523  and  _526
REMARK  195  A    between atoms: _526  and  _527
REMARK  196  A    between atoms: _533  and  _535
REMARK  197  A    between atoms: _535  and  _536
REMARK  198  A    between atoms: _535  and  _538
REMARK  199  A    between atoms: _538  and  _539
REMARK  200  A    between atoms: _544  and  _546
REMARK  201  A    between atoms: _546  and  _547
REMARK  202  A    between atoms: _546  and  _549
REMARK  203  A    between atoms: _549  and  _550
REMARK  204  A    between atoms: _550  and  _551
REMARK  205  A    between atoms: _551  and  _552
REMARK  206  A    between atoms: _552  and  ZN_793
REMARK  207  A    between atoms: _554  and  _556
REMARK  208  A    between atoms: _556  and  _557
REMARK  209  A    between atoms: _560  and  _562
REMARK  210  A    between atoms: _562  and  _563
REMARK  211  A    between atoms: _562  and  _565
REMARK  212  A    between atoms: _565  and  _566
REMARK  213  A    between atoms: _569  and  _571
REMARK  214  A    between atoms: _571  and  _572
REMARK  215  A    between atoms: _575  and  _577
REMARK  216  A    between atoms: _577  and  _578
REMARK  217  A    between atoms: _577  and  _580
REMARK  218  A    between atoms: _580  and  _581
REMARK  219  A    between atoms: _584  and  _586
REMARK  220  A    between atoms: _586  and  _587
REMARK  221  A    between atoms: _586  and  _589
REMARK  222  A    between atoms: _589  and  _590
REMARK  223  A    between atoms: _590  and  _591
REMARK  224  A    between atoms: _591  and  _592
REMARK  225  A    between atoms: _592  and  _593
REMARK  226  A    between atoms: _597  and  _599
REMARK  227  A    between atoms: _599  and  _600
REMARK  228  A    between atoms: _599  and  _602
REMARK  229  A    between atoms: _602  and  _603
REMARK  230  A    between atoms: _609  and  _611
REMARK  231  A    between atoms: _611  and  _612
REMARK  232  A    between atoms: _611  and  _614
REMARK  233  A    between atoms: _614  and  _615
REMARK  234  A    between atoms: _621  and  _623
REMARK  235  A    between atoms: _623  and  _624
REMARK  236  A    between atoms: _623  and  _626
REMARK  237  A    between atoms: _626  and  _627
REMARK  238  A    between atoms: _629  and  _631
REMARK  239  A    between atoms: _631  and  _632
REMARK  240  A    between atoms: _631  and  _634
REMARK  241  A    between atoms: _637  and  _639
REMARK  242  A    between atoms: _639  and  _640
REMARK  243  A    between atoms: _639  and  _642
REMARK  244  A    between atoms: _642  and  _643
REMARK  245  A    between atoms: _643  and  _644
REMARK  246  A    between atoms: _644  and  _645
REMARK  247  A    between atoms: _645  and  _646
REMARK  248  A    between atoms: _650  and  _652
REMARK  249  A    between atoms: _652  and  _653
REMARK  250  A    between atoms: _652  and  _655
REMARK  251  A    between atoms: _655  and  _656
REMARK  252  A    between atoms: _662  and  _664
REMARK  253  A    between atoms: _664  and  _665
REMARK  254  A    between atoms: _664  and  _667
REMARK  255  A    between atoms: _667  and  _668
REMARK  256  A    between atoms: _673  and  _675
REMARK  257  A    between atoms: _675  and  _676
REMARK  258  A    between atoms: _675  and  _678
REMARK  259  A    between atoms: _678  and  _679
REMARK  260  A    between atoms: _681  and  _683
REMARK  261  A    between atoms: _683  and  _684
REMARK  262  A    between atoms: _683  and  _686
REMARK  263  A    between atoms: _686  and  _687
REMARK  264  A    between atoms: _689  and  _691
REMARK  265  A    between atoms: _691  and  _692
REMARK  266  A    between atoms: _691  and  _694
REMARK  267  A    between atoms: _698  and  _699
REMARK  268  A    between atoms: _704  and  _706
REMARK  269  A    between atoms: _706  and  _707
REMARK  270  A    between atoms: _706  and  _709
REMARK  271  A    between atoms: _709  and  _710
REMARK  272  A    between atoms: _715  and  _716
REMARK  273  A    between atoms: _718  and  _720
REMARK  274  A    between atoms: _720  and  _721
REMARK  275  A    between atoms: _720  and  _723
REMARK  276  A    between atoms: _723  and  _724
REMARK  277  A    between atoms: _724  and  _725
REMARK  278  A    between atoms: _725  and  _726
REMARK  279  A    between atoms: _735  and  _737
REMARK  280  A    between atoms: _737  and  _738
REMARK  281  A    between atoms: _737  and  _740
REMARK  282  A    between atoms: _740  and  _741
REMARK  283  A    between atoms: _746  and  _747
REMARK  284  A    between atoms: _749  and  _751
REMARK  285  A    between atoms: _751  and  _752
REMARK  286  A    between atoms: _751  and  _754
REMARK  287  A    between atoms: _754  and  _755
REMARK  288  A    between atoms: _761  and  _763
REMARK  289  A    between atoms: _763  and  _764
REMARK  290  A    between atoms: _763  and  _766
REMARK  291  A    between atoms: _766  and  _767
REMARK  292  A    between atoms: _769  and  _771
REMARK  293  A    between atoms: _771  and  _772
REMARK  294  A    between atoms: _771  and  _774
REMARK  295  A    between atoms: _774  and  _775
REMARK  296  A    between atoms: _781  and  _783
REMARK  297  A    between atoms: _783  and  _784
REMARK  298  A    between atoms: _783  and  _786
REMARK  299  A    between atoms: _786  and  _787
REMARK  300  A    between atoms: _787  and  _788
REMARK                            x       y       z     vdW  Elec       q    Type
REMARK                         _______ _______ _______ _____ _____    ______ ____
ROOT
ATOM      1  O   HOH     1      11.222 -10.535 -13.973  0.00  0.00    +0.000 OA
ENDROOT
TORSDOF 0
REMARK  Name = ../refined-set-2016/4ca5/4ca5_pocket.pdb
REMARK  300 active torsions:
REMARK  status: ('A' for Active; 'I' for Inactive)
REMARK    1  A    between atoms: _1  and  _3
REMARK    2  A    between atoms: _3  and  _4
REMARK    3  A    between atoms: _3  and  _6
REMARK    4  A    between atoms: _6  and  _7
REMARK    5  A    between atoms: _12  and  _14
REMARK    6  A    between atoms: _14  and  _15
REMARK    7  A    between atoms: _14  and  _17
REMARK    8  A    between atoms: _17  and  _18
REMARK    9  A    between atoms: _23  and  _25
REMARK   10  A    between atoms: _25  and  _26
REMARK   11  A    between atoms: _25  and  _28
REMARK   12  A    between atoms: _28  and  _29
REMARK   13  A    between atoms: _29  and  _30
REMARK   14  A    between atoms: _33  and  _35
REMARK   15  A    between atoms: _35  and  _36
REMARK   16  A    between atoms: _35  and  _38
REMARK   17  A    between atoms: _38  and  _39
REMARK   18  A    between atoms: _44  and  _45
REMARK   19  A    between atoms: _47  and  _49
REMARK   20  A    between atoms: _49  and  _50
REMARK   21  A    between atoms: _49  and  _52
REMARK   22  A    between atoms: _52  and  _53
REMARK   23  A    between atoms: _53  and  _54
REMARK   24  A    between atoms: _57  and  _59
REMARK   25  A    between atoms: _59  and  _60
REMARK   26  A    between atoms: _59  and  _62
REMARK   27  A    between atoms: _62  and  _63
REMARK   28  A    between atoms: _66  and  _68
REMARK   29  A    between atoms: _68  and  _69
REMARK   30  A    between atoms: _71  and  _73
REMARK   31  A    between atoms: _73  and  _74
REMARK   32  A    between atoms: _73  and  _76
REMARK   33  A    between atoms: _76  and  _77
REMARK   34  A    between atoms: _82  and  _84
REMARK   35  A    between atoms: _84  and  _85
REMARK   36  A    between atoms: _84  and  _87
REMARK   37  A    between atoms: _87  and  _88
REMARK   38  A    between atoms: _88  and  _89
REMARK   39  A    between atoms: _91  and  _93
REMARK   40  A    between atoms: _93  and  _94
REMARK   41  A    between atoms: _93  and  _96
REMARK   42  A    between atoms: _96  and  _97
REMARK   43  A    between atoms: _107  and  _109
REMARK   44  A    between atoms: _109  and  _110
REMARK   45  A    between atoms: _109  and  _112
REMARK   46  A    between atoms: _112  and  _113
REMARK   47  A    between atoms: _113  and  _114
REMARK   48  A    between atoms: _119  and  _121
REMARK   49  A    between atoms: _121  and  _122
REMARK   50  A    between atoms: _121  and  _124
REMARK   51  A    between atoms: _124  and  _125
REMARK   52  A    between atoms: _128  and  _130
REMARK   53  A    between atoms: _130  and  _131
REMARK   54  A    between atoms: _130  and  _133
REMARK   55  A    between atoms: _133  and  _134
REMARK   56  A    between atoms: _144  and  _146
REMARK   57  A    between atoms: _146  and  _147
REMARK   58  A    between atoms: _146  and  _149
REMARK   59  A    between atoms: _149  and  _150
REMARK   60  A    between atoms: _152  and  _154
REMARK   61  A    between atoms: _154  and  _155
REMARK   62  A    between atoms: _154  and  _157
REMARK   63  A    between atoms: _157  and  _158
REMARK   64  A    between atoms: _163  and  _165
REMARK   65  A    between atoms: _165  and  _166
REMARK   66  A    between atoms: _165  and  _168
REMARK   67  A    between atoms: _171  and  _173
REMARK   68  A    between atoms: _173  and  _174
REMARK   69  A    between atoms: _173  and  _176
REMARK   70  A    between atoms: _178  and  _180
REMARK   71  A    between atoms: _180  and  _181
REMARK   72  A    between atoms: _180  and  _183
REMARK   73  A    between atoms: _183  and  _184
REMARK   74  A    between atoms: _189  and  _191
REMARK   75  A    between atoms: _191  and  _192
REMARK   76  A    between atoms: _195  and  _197
REMARK   77  A    between atoms: _197  and  _198
REMARK   78  A    between atoms: _197  and  _200
REMARK   79  A    between atoms: _200  and  _201
REMARK   80  A    between atoms: _203  and  _205
REMARK   81  A    between atoms: _205  and  _206
REMARK   82  A    between atoms: _209  and  _211
REMARK   83  A    between atoms: _211  and  _212
REMARK   84  A    between atoms: _211  and  _214
REMARK   85  A    between atoms: _214  and  _215
REMARK   86  A    between atoms: _225  and  _227
REMARK   87  A    between atoms: _227  and  _228
REMARK   88  A    between atoms: _227  and  _230
REMARK   89  A    between atoms: _230  and  _231
REMARK   90  A    between atoms: _234  and  _236
REMARK   91  A    between atoms: _236  and  _237
REMARK   92  A    between atoms: _236  and  _239
REMARK   93  A    between atoms: _239  and  _240
REMARK   94  A    between atoms: _245  and  _246
REMARK   95  A    between atoms: _248  and  _250
REMARK   96  A    between atoms: _250  and  _251
REMARK   97  A    between atoms: _250  and  _253
REMARK   98  A    between atoms: _253  and  _254
REMARK   99  A    between atoms: _254  and  _255
REMARK  100  A    between atoms: _255  and  _256
REMARK  101  A    between atoms: _265  and  _267
REMARK  102  A    between atoms: _267  and  _268
REMARK  103  A    between atoms: _267  and  _270
REMARK  104  A    between atoms: _270  and  _271
REMARK  105  A    between atoms: _274  and  _276
REMARK  106  A    between atoms: _276  and  _277
REMARK  107  A    between atoms: _276  and  _279
REMARK  108  A    between atoms: _279  and  _280
REMARK  109  A    between atoms: _280  and  _281
REMARK  110  A    between atoms: _281  and  _282
REMARK  111  A    between atoms: _282  and  _283
REMARK  112  A    between atoms: _287  and  _289
REMARK  113  A    between atoms: _289  and  _290
REMARK  114  A    between atoms: _289  and  _292
REMARK  115  A    between atoms: _292  and  _293
REMARK  116  A    between atoms: _293  and  _294
REMARK  117  A    between atoms: _299  and  _301
REMARK  118  A    between atoms: _301  and  _302
REMARK  119  A    between atoms: _301  and  _304
REMARK  120  A    between atoms: _304  and  _305
REMARK  121  A    between atoms: _310  and  _312
REMARK  122  A    between atoms: _312  and  _313
REMARK  123  A    between atoms: _312  and  _315
REMARK  124  A    between atoms: _315  and  _316
REMARK  125  A    between atoms: _319  and  _321
REMARK  126  A    between atoms: _321  and  _322
REMARK  127  A    between atoms: _321  and  _324
REMARK  128  A    between atoms: _324  and  _325
REMARK  129  A    between atoms: _325  and  _326
REMARK  130  A    between atoms: _329  and  _331
REMARK  131  A    between atoms: _331  and  _332
REMARK  132  A    between atoms: _331  and  _334
REMARK  133  A    between atoms: _334  and  _335
REMARK  134  A    between atoms: _338  and  _340
REMARK  135  A    between atoms: _340  and  _341
REMARK  136  A    between atoms: _340  and  _343
REMARK  137  A    between atoms: _346  and  _348
REMARK  138  A    between atoms: _348  and  _349
REMARK  139  A    between atoms: _348  and  _351
REMARK  140  A    between atoms: _354  and  _356
REMARK  141  A    between atoms: _356  and  _357
REMARK  142  A    between atoms: _360  and  _362
REMARK  143  A    between atoms: _362  and  _363
REMARK  144  A    between atoms: _362  and  _365
REMARK  145  A    between atoms: _365  and  _366
REMARK  146  A    between atoms: _371  and  _373
REMARK  147  A    between atoms: _384  and  _387
REMARK  148  A    between atoms: _387  and  _388
REMARK  149  A    between atoms: _388  and  _389
REMARK  150  A    between atoms: _394  and  _397
REMARK  151  A    between atoms: _397  and  _398
REMARK  152  A    between atoms: _398  and  _399
REMARK  153  A    between atoms: _408  and  _409
REMARK  154  A    between atoms: _417  and  _419
REMARK  155  A    between atoms: _419  and  _420
REMARK  156  A    between atoms: _419  and  _422
REMARK  157  A    between atoms: _422  and  _423
REMARK  158  A    between atoms: _426  and  _428
REMARK  159  A    between atoms: _428  and  _429
REMARK  160  A    between atoms: _428  and  _431
REMARK  161  A    between atoms: _431  and  _432
REMARK  162  A    between atoms: _437  and  _438
REMARK  163  A    between atoms: _440  and  _442
REMARK  164  A    between atoms: _442  and  _443
REMARK  165  A    between atoms: _442  and  _445
REMARK  166  A    between atoms: _445  and  _446
REMARK  167  A    between atoms: _452  and  _454
REMARK  168  A    between atoms: _454  and  _455
REMARK  169  A    between atoms: _454  and  _457
REMARK  170  A    between atoms: _457  and  _458
REMARK  171  A    between atoms: _463  and  _464
REMARK  172  A    between atoms: _466  and  _468
REMARK  173  A    between atoms: _468  and  _469
REMARK  174  A    between atoms: _468  and  _471
REMARK  175  A    between atoms: _471  and  _472
REMARK  176  A    between atoms: _472  and  _473
REMARK  177  A    between atoms: _473  and  _474
REMARK  178  A    between atoms: _483  and  _485
REMARK  179  A    between atoms: _485  and  _486
REMARK  180  A    between atoms: _485  and  _488
REMARK  181  A    between atoms: _488  and  _489
REMARK  182  A    between atoms: _489  and  _490
REMARK  183  A    between atoms: _493  and  _495
REMARK  184  A    between atoms: _495  and  _496
REMARK  185  A    between atoms: _498  and  _500
REMARK  186  A    between atoms: _500  and  _501
REMARK  187  A    between atoms: _500  and  _503
REMARK  188  A    between atoms: _503  and  _504
REMARK  189  A    between atoms: _510  and  _511
REMARK  190  A    between atoms: _516  and  _518
REMARK  191  A    between atoms: _518  and  _519
REMARK  192  A    between atoms: _521  and  _523
REMARK  193  A    between atoms: _523  and  _524
REMARK  194  A    between atoms: _523  and  _526
REMARK  195  A    between atoms: _526  and  _527
REMARK  196  A    between atoms: _533  and  _535
REMARK  197  A    between atoms: _535  and  _536
REMARK  198  A    between atoms: _535  and  _538
REMARK  199  A    between atoms: _538  and  _539
REMARK  200  A    between atoms: _544  and  _546
REMARK  201  A    between atoms: _546  and  _547
REMARK  202  A    between atoms: _546  and  _549
REMARK  203  A    between atoms: _549  and  _550
REMARK  204  A    between atoms: _550  and  _551
REMARK  205  A    between atoms: _551  and  _552
REMARK  206  A    between atoms: _552  and  ZN_793
REMARK  207  A    between atoms: _554  and  _556
REMARK  208  A    between atoms: _556  and  _557
REMARK  209  A    between atoms: _560  and  _562
REMARK  210  A    between atoms: _562  and  _563
REMARK  211  A    between atoms: _562  and  _565
REMARK  212  A    between atoms: _565  and  _566
REMARK  213  A    between atoms: _569  and  _571
REMARK  214  A    between atoms: _571  and  _572
REMARK  215  A    between atoms: _575  and  _577
REMARK  216  A    between atoms: _577  and  _578
REMARK  217  A    between atoms: _577  and  _580
REMARK  218  A    between atoms: _580  and  _581
REMARK  219  A    between atoms: _584  and  _586
REMARK  220  A    between atoms: _586  and  _587
REMARK  221  A    between atoms: _586  and  _589
REMARK  222  A    between atoms: _589  and  _590
REMARK  223  A    between atoms: _590  and  _591
REMARK  224  A    between atoms: _591  and  _592
REMARK  225  A    between atoms: _592  and  _593
REMARK  226  A    between atoms: _597  and  _599
REMARK  227  A    between atoms: _599  and  _600
REMARK  228  A    between atoms: _599  and  _602
REMARK  229  A    between atoms: _602  and  _603
REMARK  230  A    between atoms: _609  and  _611
REMARK  231  A    between atoms: _611  and  _612
REMARK  232  A    between atoms: _611  and  _614
REMARK  233  A    between atoms: _614  and  _615
REMARK  234  A    between atoms: _621  and  _623
REMARK  235  A    between atoms: _623  and  _624
REMARK  236  A    between atoms: _623  and  _626
REMARK  237  A    between atoms: _626  and  _627
REMARK  238  A    between atoms: _629  and  _631
REMARK  239  A    between atoms: _631  and  _632
REMARK  240  A    between atoms: _631  and  _634
REMARK  241  A    between atoms: _637  and  _639
REMARK  242  A    between atoms: _639  and  _640
REMARK  243  A    between atoms: _639  and  _642
REMARK  244  A    between atoms: _642  and  _643
REMARK  245  A    between atoms: _643  and  _644
REMARK  246  A    between atoms: _644  and  _645
REMARK  247  A    between atoms: _645  and  _646
REMARK  248  A    between atoms: _650  and  _652
REMARK  249  A    between atoms: _652  and  _653
REMARK  250  A    between atoms: _652  and  _655
REMARK  251  A    between atoms: _655  and  _656
REMARK  252  A    between atoms: _662  and  _664
REMARK  253  A    between atoms: _664  and  _665
REMARK  254  A    between atoms: _664  and  _667
REMARK  255  A    between atoms: _667  and  _668
REMARK  256  A    between atoms: _673  and  _675
REMARK  257  A    between atoms: _675  and  _676
REMARK  258  A    between atoms: _675  and  _678
REMARK  259  A    between atoms: _678  and  _679
REMARK  260  A    between atoms: _681  and  _683
REMARK  261  A    between atoms: _683  and  _684
REMARK  262  A    between atoms: _683  and  _686
REMARK  263  A    between atoms: _686  and  _687
REMARK  264  A    between atoms: _689  and  _691
REMARK  265  A    between atoms: _691  and  _692
REMARK  266  A    between atoms: _691  and  _694
REMARK  267  A    between atoms: _698  and  _699
REMARK  268  A    between atoms: _704  and  _706
REMARK  269  A    between atoms: _706  and  _707
REMARK  270  A    between atoms: _706  and  _709
REMARK  271  A    between atoms: _709  and  _710
REMARK  272  A    between atoms: _715  and  _716
REMARK  273  A    between atoms: _718  and  _720
REMARK  274  A    between atoms: _720  and  _721
REMARK  275  A    between atoms: _720  and  _723
REMARK  276  A    between atoms: _723  and  _724
REMARK  277  A    between atoms: _724  and  _725
REMARK  278  A    between atoms: _725  and  _726
REMARK  279  A    between atoms: _735  and  _737
REMARK  280  A    between atoms: _737  and  _738
REMARK  281  A    between atoms: _737  and  _740
REMARK  282  A    between atoms: _740  and  _741
REMARK  283  A    between atoms: _746  and  _747
REMARK  284  A    between atoms: _749  and  _751
REMARK  285  A    between atoms: _751  and  _752
REMARK  286  A    between atoms: _751  and  _754
REMARK  287  A    between atoms: _754  and  _755
REMARK  288  A    between atoms: _761  and  _763
REMARK  289  A    between atoms: _763  and  _764
REMARK  290  A    between atoms: _763  and  _766
REMARK  291  A    between atoms: _766  and  _767
REMARK  292  A    between atoms: _769  and  _771
REMARK  293  A    between atoms: _771  and  _772
REMARK  294  A    between atoms: _771  and  _774
REMARK  295  A    between atoms: _774  and  _775
REMARK  296  A    between atoms: _781  and  _783
REMARK  297  A    between atoms: _783  and  _784
REMARK  298  A    between atoms: _783  and  _786
REMARK  299  A    between atoms: _786  and  _787
REMARK  300  A    between atoms: _787  and  _788
REMARK                            x       y       z     vdW  Elec       q    Type
REMARK                         _______ _______ _______ _____ _____    ______ ____
ROOT
ATOM      1  O   HOH     1      14.397  -2.343 -10.147  0.00  0.00    +0.000 OA
ENDROOT
TORSDOF 0
REMARK  Name = ../refined-set-2016/4ca5/4ca5_pocket.pdb
REMARK  300 active torsions:
REMARK  status: ('A' for Active; 'I' for Inactive)
REMARK    1  A    between atoms: _1  and  _3
REMARK    2  A    between atoms: _3  and  _4
REMARK    3  A    between atoms: _3  and  _6
REMARK    4  A    between atoms: _6  and  _7
REMARK    5  A    between atoms: _12  and  _14
REMARK    6  A    between atoms: _14  and  _15
REMARK    7  A    between atoms: _14  and  _17
REMARK    8  A    between atoms: _17  and  _18
REMARK    9  A    between atoms: _23  and  _25
REMARK   10  A    between atoms: _25  and  _26
REMARK   11  A    between atoms: _25  and  _28
REMARK   12  A    between atoms: _28  and  _29
REMARK   13  A    between atoms: _29  and  _30
REMARK   14  A    between atoms: _33  and  _35
REMARK   15  A    between atoms: _35  and  _36
REMARK   16  A    between atoms: _35  and  _38
REMARK   17  A    between atoms: _38  and  _39
REMARK   18  A    between atoms: _44  and  _45
REMARK   19  A    between atoms: _47  and  _49
REMARK   20  A    between atoms: _49  and  _50
REMARK   21  A    between atoms: _49  and  _52
REMARK   22  A    between atoms: _52  and  _53
REMARK   23  A    between atoms: _53  and  _54
REMARK   24  A    between atoms: _57  and  _59
REMARK   25  A    between atoms: _59  and  _60
REMARK   26  A    between atoms: _59  and  _62
REMARK   27  A    between atoms: _62  and  _63
REMARK   28  A    between atoms: _66  and  _68
REMARK   29  A    between atoms: _68  and  _69
REMARK   30  A    between atoms: _71  and  _73
REMARK   31  A    between atoms: _73  and  _74
REMARK   32  A    between atoms: _73  and  _76
REMARK   33  A    between atoms: _76  and  _77
REMARK   34  A    between atoms: _82  and  _84
REMARK   35  A    between atoms: _84  and  _85
REMARK   36  A    between atoms: _84  and  _87
REMARK   37  A    between atoms: _87  and  _88
REMARK   38  A    between atoms: _88  and  _89
REMARK   39  A    between atoms: _91  and  _93
REMARK   40  A    between atoms: _93  and  _94
REMARK   41  A    between atoms: _93  and  _96
REMARK   42  A    between atoms: _96  and  _97
REMARK   43  A    between atoms: _107  and  _109
REMARK   44  A    between atoms: _109  and  _110
REMARK   45  A    between atoms: _109  and  _112
REMARK   46  A    between atoms: _112  and  _113
REMARK   47  A    between atoms: _113  and  _114
REMARK   48  A    between atoms: _119  and  _121
REMARK   49  A    between atoms: _121  and  _122
REMARK   50  A    between atoms: _121  and  _124
REMARK   51  A    between atoms: _124  and  _125
REMARK   52  A    between atoms: _128  and  _130
REMARK   53  A    between atoms: _130  and  _131
REMARK   54  A    between atoms: _130  and  _133
REMARK   55  A    between atoms: _133  and  _134
REMARK   56  A    between atoms: _144  and  _146
REMARK   57  A    between atoms: _146  and  _147
REMARK   58  A    between atoms: _146  and  _149
REMARK   59  A    between atoms: _149  and  _150
REMARK   60  A    between atoms: _152  and  _154
REMARK   61  A    between atoms: _154  and  _155
REMARK   62  A    between atoms: _154  and  _157
REMARK   63  A    between atoms: _157  and  _158
REMARK   64  A    between atoms: _163  and  _165
REMARK   65  A    between atoms: _165  and  _166
REMARK   66  A    between atoms: _165  and  _168
REMARK   67  A    between atoms: _171  and  _173
REMARK   68  A    between atoms: _173  and  _174
REMARK   69  A    between atoms: _173  and  _176
REMARK   70  A    between atoms: _178  and  _180
REMARK   71  A    between atoms: _180  and  _181
REMARK   72  A    between atoms: _180  and  _183
REMARK   73  A    between atoms: _183  and  _184
REMARK   74  A    between atoms: _189  and  _191
REMARK   75  A    between atoms: _191  and  _192
REMARK   76  A    between atoms: _195  and  _197
REMARK   77  A    between atoms: _197  and  _198
REMARK   78  A    between atoms: _197  and  _200
REMARK   79  A    between atoms: _200  and  _201
REMARK   80  A    between atoms: _203  and  _205
REMARK   81  A    between atoms: _205  and  _206
REMARK   82  A    between atoms: _209  and  _211
REMARK   83  A    between atoms: _211  and  _212
REMARK   84  A    between atoms: _211  and  _214
REMARK   85  A    between atoms: _214  and  _215
REMARK   86  A    between atoms: _225  and  _227
REMARK   87  A    between atoms: _227  and  _228
REMARK   88  A    between atoms: _227  and  _230
REMARK   89  A    between atoms: _230  and  _231
REMARK   90  A    between atoms: _234  and  _236
REMARK   91  A    between atoms: _236  and  _237
REMARK   92  A    between atoms: _236  and  _239
REMARK   93  A    between atoms: _239  and  _240
REMARK   94  A    between atoms: _245  and  _246
REMARK   95  A    between atoms: _248  and  _250
REMARK   96  A    between atoms: _250  and  _251
REMARK   97  A    between atoms: _250  and  _253
REMARK   98  A    between atoms: _253  and  _254
REMARK   99  A    between atoms: _254  and  _255
REMARK  100  A    between atoms: _255  and  _256
REMARK  101  A    between atoms: _265  and  _267
REMARK  102  A    between atoms: _267  and  _268
REMARK  103  A    between atoms: _267  and  _270
REMARK  104  A    between atoms: _270  and  _271
REMARK  105  A    between atoms: _274  and  _276
REMARK  106  A    between atoms: _276  and  _277
REMARK  107  A    between atoms: _276  and  _279
REMARK  108  A    between atoms: _279  and  _280
REMARK  109  A    between atoms: _280  and  _281
REMARK  110  A    between atoms: _281  and  _282
REMARK  111  A    between atoms: _282  and  _283
REMARK  112  A    between atoms: _287  and  _289
REMARK  113  A    between atoms: _289  and  _290
REMARK  114  A    between atoms: _289  and  _292
REMARK  115  A    between atoms: _292  and  _293
REMARK  116  A    between atoms: _293  and  _294
REMARK  117  A    between atoms: _299  and  _301
REMARK  118  A    between atoms: _301  and  _302
REMARK  119  A    between atoms: _301  and  _304
REMARK  120  A    between atoms: _304  and  _305
REMARK  121  A    between atoms: _310  and  _312
REMARK  122  A    between atoms: _312  and  _313
REMARK  123  A    between atoms: _312  and  _315
REMARK  124  A    between atoms: _315  and  _316
REMARK  125  A    between atoms: _319  and  _321
REMARK  126  A    between atoms: _321  and  _322
REMARK  127  A    between atoms: _321  and  _324
REMARK  128  A    between atoms: _324  and  _325
REMARK  129  A    between atoms: _325  and  _326
REMARK  130  A    between atoms: _329  and  _331
REMARK  131  A    between atoms: _331  and  _332
REMARK  132  A    between atoms: _331  and  _334
REMARK  133  A    between atoms: _334  and  _335
REMARK  134  A    between atoms: _338  and  _340
REMARK  135  A    between atoms: _340  and  _341
REMARK  136  A    between atoms: _340  and  _343
REMARK  137  A    between atoms: _346  and  _348
REMARK  138  A    between atoms: _348  and  _349
REMARK  139  A    between atoms: _348  and  _351
REMARK  140  A    between atoms: _354  and  _356
REMARK  141  A    between atoms: _356  and  _357
REMARK  142  A    between atoms: _360  and  _362
REMARK  143  A    between atoms: _362  and  _363
REMARK  144  A    between atoms: _362  and  _365
REMARK  145  A    between atoms: _365  and  _366
REMARK  146  A    between atoms: _371  and  _373
REMARK  147  A    between atoms: _384  and  _387
REMARK  148  A    between atoms: _387  and  _388
REMARK  149  A    between atoms: _388  and  _389
REMARK  150  A    between atoms: _394  and  _397
REMARK  151  A    between atoms: _397  and  _398
REMARK  152  A    between atoms: _398  and  _399
REMARK  153  A    between atoms: _408  and  _409
REMARK  154  A    between atoms: _417  and  _419
REMARK  155  A    between atoms: _419  and  _420
REMARK  156  A    between atoms: _419  and  _422
REMARK  157  A    between atoms: _422  and  _423
REMARK  158  A    between atoms: _426  and  _428
REMARK  159  A    between atoms: _428  and  _429
REMARK  160  A    between atoms: _428  and  _431
REMARK  161  A    between atoms: _431  and  _432
REMARK  162  A    between atoms: _437  and  _438
REMARK  163  A    between atoms: _440  and  _442
REMARK  164  A    between atoms: _442  and  _443
REMARK  165  A    between atoms: _442  and  _445
REMARK  166  A    between atoms: _445  and  _446
REMARK  167  A    between atoms: _452  and  _454
REMARK  168  A    between atoms: _454  and  _455
REMARK  169  A    between atoms: _454  and  _457
REMARK  170  A    between atoms: _457  and  _458
REMARK  171  A    between atoms: _463  and  _464
REMARK  172  A    between atoms: _466  and  _468
REMARK  173  A    between atoms: _468  and  _469
REMARK  174  A    between atoms: _468  and  _471
REMARK  175  A    between atoms: _471  and  _472
REMARK  176  A    between atoms: _472  and  _473
REMARK  177  A    between atoms: _473  and  _474
REMARK  178  A    between atoms: _483  and  _485
REMARK  179  A    between atoms: _485  and  _486
REMARK  180  A    between atoms: _485  and  _488
REMARK  181  A    between atoms: _488  and  _489
REMARK  182  A    between atoms: _489  and  _490
REMARK  183  A    between atoms: _493  and  _495
REMARK  184  A    between atoms: _495  and  _496
REMARK  185  A    between atoms: _498  and  _500
REMARK  186  A    between atoms: _500  and  _501
REMARK  187  A    between atoms: _500  and  _503
REMARK  188  A    between atoms: _503  and  _504
REMARK  189  A    between atoms: _510  and  _511
REMARK  190  A    between atoms: _516  and  _518
REMARK  191  A    between atoms: _518  and  _519
REMARK  192  A    between atoms: _521  and  _523
REMARK  193  A    between atoms: _523  and  _524
REMARK  194  A    between atoms: _523  and  _526
REMARK  195  A    between atoms: _526  and  _527
REMARK  196  A    between atoms: _533  and  _535
REMARK  197  A    between atoms: _535  and  _536
REMARK  198  A    between atoms: _535  and  _538
REMARK  199  A    between atoms: _538  and  _539
REMARK  200  A    between atoms: _544  and  _546
REMARK  201  A    between atoms: _546  and  _547
REMARK  202  A    between atoms: _546  and  _549
REMARK  203  A    between atoms: _549  and  _550
REMARK  204  A    between atoms: _550  and  _551
REMARK  205  A    between atoms: _551  and  _552
REMARK  206  A    between atoms: _552  and  ZN_793
REMARK  207  A    between atoms: _554  and  _556
REMARK  208  A    between atoms: _556  and  _557
REMARK  209  A    between atoms: _560  and  _562
REMARK  210  A    between atoms: _562  and  _563
REMARK  211  A    between atoms: _562  and  _565
REMARK  212  A    between atoms: _565  and  _566
REMARK  213  A    between atoms: _569  and  _571
REMARK  214  A    between atoms: _571  and  _572
REMARK  215  A    between atoms: _575  and  _577
REMARK  216  A    between atoms: _577  and  _578
REMARK  217  A    between atoms: _577  and  _580
REMARK  218  A    between atoms: _580  and  _581
REMARK  219  A    between atoms: _584  and  _586
REMARK  220  A    between atoms: _586  and  _587
REMARK  221  A    between atoms: _586  and  _589
REMARK  222  A    between atoms: _589  and  _590
REMARK  223  A    between atoms: _590  and  _591
REMARK  224  A    between atoms: _591  and  _592
REMARK  225  A    between atoms: _592  and  _593
REMARK  226  A    between atoms: _597  and  _599
REMARK  227  A    between atoms: _599  and  _600
REMARK  228  A    between atoms: _599  and  _602
REMARK  229  A    between atoms: _602  and  _603
REMARK  230  A    between atoms: _609  and  _611
REMARK  231  A    between atoms: _611  and  _612
REMARK  232  A    between atoms: _611  and  _614
REMARK  233  A    between atoms: _614  and  _615
REMARK  234  A    between atoms: _621  and  _623
REMARK  235  A    between atoms: _623  and  _624
REMARK  236  A    between atoms: _623  and  _626
REMARK  237  A    between atoms: _626  and  _627
REMARK  238  A    between atoms: _629  and  _631
REMARK  239  A    between atoms: _631  and  _632
REMARK  240  A    between atoms: _631  and  _634
REMARK  241  A    between atoms: _637  and  _639
REMARK  242  A    between atoms: _639  and  _640
REMARK  243  A    between atoms: _639  and  _642
REMARK  244  A    between atoms: _642  and  _643
REMARK  245  A    between atoms: _643  and  _644
REMARK  246  A    between atoms: _644  and  _645
REMARK  247  A    between atoms: _645  and  _646
REMARK  248  A    between atoms: _650  and  _652
REMARK  249  A    between atoms: _652  and  _653
REMARK  250  A    between atoms: _652  and  _655
REMARK  251  A    between atoms: _655  and  _656
REMARK  252  A    between atoms: _662  and  _664
REMARK  253  A    between atoms: _664  and  _665
REMARK  254  A    between atoms: _664  and  _667
REMARK  255  A    between atoms: _667  and  _668
REMARK  256  A    between atoms: _673  and  _675
REMARK  257  A    between atoms: _675  and  _676
REMARK  258  A    between atoms: _675  and  _678
REMARK  259  A    between atoms: _678  and  _679
REMARK  260  A    between atoms: _681  and  _683
REMARK  261  A    between atoms: _683  and  _684
REMARK  262  A    between atoms: _683  and  _686
REMARK  263  A    between atoms: _686  and  _687
REMARK  264  A    between atoms: _689  and  _691
REMARK  265  A    between atoms: _691  and  _692
REMARK  266  A    between atoms: _691  and  _694
REMARK  267  A    between atoms: _698  and  _699
REMARK  268  A    between atoms: _704  and  _706
REMARK  269  A    between atoms: _706  and  _707
REMARK  270  A    between atoms: _706  and  _709
REMARK  271  A    between atoms: _709  and  _710
REMARK  272  A    between atoms: _715  and  _716
REMARK  273  A    between atoms: _718  and  _720
REMARK  274  A    between atoms: _720  and  _721
REMARK  275  A    between atoms: _720  and  _723
REMARK  276  A    between atoms: _723  and  _724
REMARK  277  A    between atoms: _724  and  _725
REMARK  278  A    between atoms: _725  and  _726
REMARK  279  A    between atoms: _735  and  _737
REMARK  280  A    between atoms: _737  and  _738
REMARK  281  A    between atoms: _737  and  _740
REMARK  282  A    between atoms: _740  and  _741
REMARK  283  A    between atoms: _746  and  _747
REMARK  284  A    between atoms: _749  and  _751
REMARK  285  A    between atoms: _751  and  _752
REMARK  286  A    between atoms: _751  and  _754
REMARK  287  A    between atoms: _754  and  _755
REMARK  288  A    between atoms: _761  and  _763
REMARK  289  A    between atoms: _763  and  _764
REMARK  290  A    between atoms: _763  and  _766
REMARK  291  A    between atoms: _766  and  _767
REMARK  292  A    between atoms: _769  and  _771
REMARK  293  A    between atoms: _771  and  _772
REMARK  294  A    between atoms: _771  and  _774
REMARK  295  A    between atoms: _774  and  _775
REMARK  296  A    between atoms: _781  and  _783
REMARK  297  A    between atoms: _783  and  _784
REMARK  298  A    between atoms: _783  and  _786
REMARK  299  A    between atoms: _786  and  _787
REMARK  300  A    between atoms: _787  and  _788
REMARK                            x       y       z     vdW  Elec       q    Type
REMARK                         _______ _______ _______ _____ _____    ______ ____
ROOT
ATOM      1  O   HOH     1      16.435   2.520 -10.610  0.00  0.00    +0.000 OA
ENDROOT
TORSDOF 0
REMARK  Name = ../refined-set-2016/4ca5/4ca5_pocket.pdb
REMARK  300 active torsions:
REMARK  status: ('A' for Active; 'I' for Inactive)
REMARK    1  A    between atoms: _1  and  _3
REMARK    2  A    between atoms: _3  and  _4
REMARK    3  A    between atoms: _3  and  _6
REMARK    4  A    between atoms: _6  and  _7
REMARK    5  A    between atoms: _12  and  _14
REMARK    6  A    between atoms: _14  and  _15
REMARK    7  A    between atoms: _14  and  _17
REMARK    8  A    between atoms: _17  and  _18
REMARK    9  A    between atoms: _23  and  _25
REMARK   10  A    between atoms: _25  and  _26
REMARK   11  A    between atoms: _25  and  _28
REMARK   12  A    between atoms: _28  and  _29
REMARK   13  A    between atoms: _29  and  _30
REMARK   14  A    between atoms: _33  and  _35
REMARK   15  A    between atoms: _35  and  _36
REMARK   16  A    between atoms: _35  and  _38
REMARK   17  A    between atoms: _38  and  _39
REMARK   18  A    between atoms: _44  and  _45
REMARK   19  A    between atoms: _47  and  _49
REMARK   20  A    between atoms: _49  and  _50
REMARK   21  A    between atoms: _49  and  _52
REMARK   22  A    between atoms: _52  and  _53
REMARK   23  A    between atoms: _53  and  _54
REMARK   24  A    between atoms: _57  and  _59
REMARK   25  A    between atoms: _59  and  _60
REMARK   26  A    between atoms: _59  and  _62
REMARK   27  A    between atoms: _62  and  _63
REMARK   28  A    between atoms: _66  and  _68
REMARK   29  A    between atoms: _68  and  _69
REMARK   30  A    between atoms: _71  and  _73
REMARK   31  A    between atoms: _73  and  _74
REMARK   32  A    between atoms: _73  and  _76
REMARK   33  A    between atoms: _76  and  _77
REMARK   34  A    between atoms: _82  and  _84
REMARK   35  A    between atoms: _84  and  _85
REMARK   36  A    between atoms: _84  and  _87
REMARK   37  A    between atoms: _87  and  _88
REMARK   38  A    between atoms: _88  and  _89
REMARK   39  A    between atoms: _91  and  _93
REMARK   40  A    between atoms: _93  and  _94
REMARK   41  A    between atoms: _93  and  _96
REMARK   42  A    between atoms: _96  and  _97
REMARK   43  A    between atoms: _107  and  _109
REMARK   44  A    between atoms: _109  and  _110
REMARK   45  A    between atoms: _109  and  _112
REMARK   46  A    between atoms: _112  and  _113
REMARK   47  A    between atoms: _113  and  _114
REMARK   48  A    between atoms: _119  and  _121
REMARK   49  A    between atoms: _121  and  _122
REMARK   50  A    between atoms: _121  and  _124
REMARK   51  A    between atoms: _124  and  _125
REMARK   52  A    between atoms: _128  and  _130
REMARK   53  A    between atoms: _130  and  _131
REMARK   54  A    between atoms: _130  and  _133
REMARK   55  A    between atoms: _133  and  _134
REMARK   56  A    between atoms: _144  and  _146
REMARK   57  A    between atoms: _146  and  _147
REMARK   58  A    between atoms: _146  and  _149
REMARK   59  A    between atoms: _149  and  _150
REMARK   60  A    between atoms: _152  and  _154
REMARK   61  A    between atoms: _154  and  _155
REMARK   62  A    between atoms: _154  and  _157
REMARK   63  A    between atoms: _157  and  _158
REMARK   64  A    between atoms: _163  and  _165
REMARK   65  A    between atoms: _165  and  _166
REMARK   66  A    between atoms: _165  and  _168
REMARK   67  A    between atoms: _171  and  _173
REMARK   68  A    between atoms: _173  and  _174
REMARK   69  A    between atoms: _173  and  _176
REMARK   70  A    between atoms: _178  and  _180
REMARK   71  A    between atoms: _180  and  _181
REMARK   72  A    between atoms: _180  and  _183
REMARK   73  A    between atoms: _183  and  _184
REMARK   74  A    between atoms: _189  and  _191
REMARK   75  A    between atoms: _191  and  _192
REMARK   76  A    between atoms: _195  and  _197
REMARK   77  A    between atoms: _197  and  _198
REMARK   78  A    between atoms: _197  and  _200
REMARK   79  A    between atoms: _200  and  _201
REMARK   80  A    between atoms: _203  and  _205
REMARK   81  A    between atoms: _205  and  _206
REMARK   82  A    between atoms: _209  and  _211
REMARK   83  A    between atoms: _211  and  _212
REMARK   84  A    between atoms: _211  and  _214
REMARK   85  A    between atoms: _214  and  _215
REMARK   86  A    between atoms: _225  and  _227
REMARK   87  A    between atoms: _227  and  _228
REMARK   88  A    between atoms: _227  and  _230
REMARK   89  A    between atoms: _230  and  _231
REMARK   90  A    between atoms: _234  and  _236
REMARK   91  A    between atoms: _236  and  _237
REMARK   92  A    between atoms: _236  and  _239
REMARK   93  A    between atoms: _239  and  _240
REMARK   94  A    between atoms: _245  and  _246
REMARK   95  A    between atoms: _248  and  _250
REMARK   96  A    between atoms: _250  and  _251
REMARK   97  A    between atoms: _250  and  _253
REMARK   98  A    between atoms: _253  and  _254
REMARK   99  A    between atoms: _254  and  _255
REMARK  100  A    between atoms: _255  and  _256
REMARK  101  A    between atoms: _265  and  _267
REMARK  102  A    between atoms: _267  and  _268
REMARK  103  A    between atoms: _267  and  _270
REMARK  104  A    between atoms: _270  and  _271
REMARK  105  A    between atoms: _274  and  _276
REMARK  106  A    between atoms: _276  and  _277
REMARK  107  A    between atoms: _276  and  _279
REMARK  108  A    between atoms: _279  and  _280
REMARK  109  A    between atoms: _280  and  _281
REMARK  110  A    between atoms: _281  and  _282
REMARK  111  A    between atoms: _282  and  _283
REMARK  112  A    between atoms: _287  and  _289
REMARK  113  A    between atoms: _289  and  _290
REMARK  114  A    between atoms: _289  and  _292
REMARK  115  A    between atoms: _292  and  _293
REMARK  116  A    between atoms: _293  and  _294
REMARK  117  A    between atoms: _299  and  _301
REMARK  118  A    between atoms: _301  and  _302
REMARK  119  A    between atoms: _301  and  _304
REMARK  120  A    between atoms: _304  and  _305
REMARK  121  A    between atoms: _310  and  _312
REMARK  122  A    between atoms: _312  and  _313
REMARK  123  A    between atoms: _312  and  _315
REMARK  124  A    between atoms: _315  and  _316
REMARK  125  A    between atoms: _319  and  _321
REMARK  126  A    between atoms: _321  and  _322
REMARK  127  A    between atoms: _321  and  _324
REMARK  128  A    between atoms: _324  and  _325
REMARK  129  A    between atoms: _325  and  _326
REMARK  130  A    between atoms: _329  and  _331
REMARK  131  A    between atoms: _331  and  _332
REMARK  132  A    between atoms: _331  and  _334
REMARK  133  A    between atoms: _334  and  _335
REMARK  134  A    between atoms: _338  and  _340
REMARK  135  A    between atoms: _340  and  _341
REMARK  136  A    between atoms: _340  and  _343
REMARK  137  A    between atoms: _346  and  _348
REMARK  138  A    between atoms: _348  and  _349
REMARK  139  A    between atoms: _348  and  _351
REMARK  140  A    between atoms: _354  and  _356
REMARK  141  A    between atoms: _356  and  _357
REMARK  142  A    between atoms: _360  and  _362
REMARK  143  A    between atoms: _362  and  _363
REMARK  144  A    between atoms: _362  and  _365
REMARK  145  A    between atoms: _365  and  _366
REMARK  146  A    between atoms: _371  and  _373
REMARK  147  A    between atoms: _384  and  _387
REMARK  148  A    between atoms: _387  and  _388
REMARK  149  A    between atoms: _388  and  _389
REMARK  150  A    between atoms: _394  and  _397
REMARK  151  A    between atoms: _397  and  _398
REMARK  152  A    between atoms: _398  and  _399
REMARK  153  A    between atoms: _408  and  _409
REMARK  154  A    between atoms: _417  and  _419
REMARK  155  A    between atoms: _419  and  _420
REMARK  156  A    between atoms: _419  and  _422
REMARK  157  A    between atoms: _422  and  _423
REMARK  158  A    between atoms: _426  and  _428
REMARK  159  A    between atoms: _428  and  _429
REMARK  160  A    between atoms: _428  and  _431
REMARK  161  A    between atoms: _431  and  _432
REMARK  162  A    between atoms: _437  and  _438
REMARK  163  A    between atoms: _440  and  _442
REMARK  164  A    between atoms: _442  and  _443
REMARK  165  A    between atoms: _442  and  _445
REMARK  166  A    between atoms: _445  and  _446
REMARK  167  A    between atoms: _452  and  _454
REMARK  168  A    between atoms: _454  and  _455
REMARK  169  A    between atoms: _454  and  _457
REMARK  170  A    between atoms: _457  and  _458
REMARK  171  A    between atoms: _463  and  _464
REMARK  172  A    between atoms: _466  and  _468
REMARK  173  A    between atoms: _468  and  _469
REMARK  174  A    between atoms: _468  and  _471
REMARK  175  A    between atoms: _471  and  _472
REMARK  176  A    between atoms: _472  and  _473
REMARK  177  A    between atoms: _473  and  _474
REMARK  178  A    between atoms: _483  and  _485
REMARK  179  A    between atoms: _485  and  _486
REMARK  180  A    between atoms: _485  and  _488
REMARK  181  A    between atoms: _488  and  _489
REMARK  182  A    between atoms: _489  and  _490
REMARK  183  A    between atoms: _493  and  _495
REMARK  184  A    between atoms: _495  and  _496
REMARK  185  A    between atoms: _498  and  _500
REMARK  186  A    between atoms: _500  and  _501
REMARK  187  A    between atoms: _500  and  _503
REMARK  188  A    between atoms: _503  and  _504
REMARK  189  A    between atoms: _510  and  _511
REMARK  190  A    between atoms: _516  and  _518
REMARK  191  A    between atoms: _518  and  _519
REMARK  192  A    between atoms: _521  and  _523
REMARK  193  A    between atoms: _523  and  _524
REMARK  194  A    between atoms: _523  and  _526
REMARK  195  A    between atoms: _526  and  _527
REMARK  196  A    between atoms: _533  and  _535
REMARK  197  A    between atoms: _535  and  _536
REMARK  198  A    between atoms: _535  and  _538
REMARK  199  A    between atoms: _538  and  _539
REMARK  200  A    between atoms: _544  and  _546
REMARK  201  A    between atoms: _546  and  _547
REMARK  202  A    between atoms: _546  and  _549
REMARK  203  A    between atoms: _549  and  _550
REMARK  204  A    between atoms: _550  and  _551
REMARK  205  A    between atoms: _551  and  _552
REMARK  206  A    between atoms: _552  and  ZN_793
REMARK  207  A    between atoms: _554  and  _556
REMARK  208  A    between atoms: _556  and  _557
REMARK  209  A    between atoms: _560  and  _562
REMARK  210  A    between atoms: _562  and  _563
REMARK  211  A    between atoms: _562  and  _565
REMARK  212  A    between atoms: _565  and  _566
REMARK  213  A    between atoms: _569  and  _571
REMARK  214  A    between atoms: _571  and  _572
REMARK  215  A    between atoms: _575  and  _577
REMARK  216  A    between atoms: _577  and  _578
REMARK  217  A    between atoms: _577  and  _580
REMARK  218  A    between atoms: _580  and  _581
REMARK  219  A    between atoms: _584  and  _586
REMARK  220  A    between atoms: _586  and  _587
REMARK  221  A    between atoms: _586  and  _589
REMARK  222  A    between atoms: _589  and  _590
REMARK  223  A    between atoms: _590  and  _591
REMARK  224  A    between atoms: _591  and  _592
REMARK  225  A    between atoms: _592  and  _593
REMARK  226  A    between atoms: _597  and  _599
REMARK  227  A    between atoms: _599  and  _600
REMARK  228  A    between atoms: _599  and  _602
REMARK  229  A    between atoms: _602  and  _603
REMARK  230  A    between atoms: _609  and  _611
REMARK  231  A    between atoms: _611  and  _612
REMARK  232  A    between atoms: _611  and  _614
REMARK  233  A    between atoms: _614  and  _615
REMARK  234  A    between atoms: _621  and  _623
REMARK  235  A    between atoms: _623  and  _624
REMARK  236  A    between atoms: _623  and  _626
REMARK  237  A    between atoms: _626  and  _627
REMARK  238  A    between atoms: _629  and  _631
REMARK  239  A    between atoms: _631  and  _632
REMARK  240  A    between atoms: _631  and  _634
REMARK  241  A    between atoms: _637  and  _639
REMARK  242  A    between atoms: _639  and  _640
REMARK  243  A    between atoms: _639  and  _642
REMARK  244  A    between atoms: _642  and  _643
REMARK  245  A    between atoms: _643  and  _644
REMARK  246  A    between atoms: _644  and  _645
REMARK  247  A    between atoms: _645  and  _646
REMARK  248  A    between atoms: _650  and  _652
REMARK  249  A    between atoms: _652  and  _653
REMARK  250  A    between atoms: _652  and  _655
REMARK  251  A    between atoms: _655  and  _656
REMARK  252  A    between atoms: _662  and  _664
REMARK  253  A    between atoms: _664  and  _665
REMARK  254  A    between atoms: _664  and  _667
REMARK  255  A    between atoms: _667  and  _668
REMARK  256  A    between atoms: _673  and  _675
REMARK  257  A    between atoms: _675  and  _676
REMARK  258  A    between atoms: _675  and  _678
REMARK  259  A    between atoms: _678  and  _679
REMARK  260  A    between atoms: _681  and  _683
REMARK  261  A    between atoms: _683  and  _684
REMARK  262  A    between atoms: _683  and  _686
REMARK  263  A    between atoms: _686  and  _687
REMARK  264  A    between atoms: _689  and  _691
REMARK  265  A    between atoms: _691  and  _692
REMARK  266  A    between atoms: _691  and  _694
REMARK  267  A    between atoms: _698  and  _699
REMARK  268  A    between atoms: _704  and  _706
REMARK  269  A    between atoms: _706  and  _707
REMARK  270  A    between atoms: _706  and  _709
REMARK  271  A    between atoms: _709  and  _710
REMARK  272  A    between atoms: _715  and  _716
REMARK  273  A    between atoms: _718  and  _720
REMARK  274  A    between atoms: _720  and  _721
REMARK  275  A    between atoms: _720  and  _723
REMARK  276  A    between atoms: _723  and  _724
REMARK  277  A    between atoms: _724  and  _725
REMARK  278  A    between atoms: _725  and  _726
REMARK  279  A    between atoms: _735  and  _737
REMARK  280  A    between atoms: _737  and  _738
REMARK  281  A    between atoms: _737  and  _740
REMARK  282  A    between atoms: _740  and  _741
REMARK  283  A    between atoms: _746  and  _747
REMARK  284  A    between atoms: _749  and  _751
REMARK  285  A    between atoms: _751  and  _752
REMARK  286  A    between atoms: _751  and  _754
REMARK  287  A    between atoms: _754  and  _755
REMARK  288  A    between atoms: _761  and  _763
REMARK  289  A    between atoms: _763  and  _764
REMARK  290  A    between atoms: _763  and  _766
REMARK  291  A    between atoms: _766  and  _767
REMARK  292  A    between atoms: _769  and  _771
REMARK  293  A    between atoms: _771  and  _772
REMARK  294  A    between atoms: _771  and  _774
REMARK  295  A    between atoms: _774  and  _775
REMARK  296  A    between atoms: _781  and  _783
REMARK  297  A    between atoms: _783  and  _784
REMARK  298  A    between atoms: _783  and  _786
REMARK  299  A    between atoms: _786  and  _787
REMARK  300  A    between atoms: _787  and  _788
REMARK                            x       y       z     vdW  Elec       q    Type
REMARK                         _______ _______ _______ _____ _____    ______ ____
ROOT
ATOM      1  O   HOH     1      18.506 -18.944 -24.877  0.00  0.00    +0.000 OA
ENDROOT
TORSDOF 0
REMARK  Name = ../refined-set-2016/4ca5/4ca5_pocket.pdb
REMARK  300 active torsions:
REMARK  status: ('A' for Active; 'I' for Inactive)
REMARK    1  A    between atoms: _1  and  _3
REMARK    2  A    between atoms: _3  and  _4
REMARK    3  A    between atoms: _3  and  _6
REMARK    4  A    between atoms: _6  and  _7
REMARK    5  A    between atoms: _12  and  _14
REMARK    6  A    between atoms: _14  and  _15
REMARK    7  A    between atoms: _14  and  _17
REMARK    8  A    between atoms: _17  and  _18
REMARK    9  A    between atoms: _23  and  _25
REMARK   10  A    between atoms: _25  and  _26
REMARK   11  A    between atoms: _25  and  _28
REMARK   12  A    between atoms: _28  and  _29
REMARK   13  A    between atoms: _29  and  _30
REMARK   14  A    between atoms: _33  and  _35
REMARK   15  A    between atoms: _35  and  _36
REMARK   16  A    between atoms: _35  and  _38
REMARK   17  A    between atoms: _38  and  _39
REMARK   18  A    between atoms: _44  and  _45
REMARK   19  A    between atoms: _47  and  _49
REMARK   20  A    between atoms: _49  and  _50
REMARK   21  A    between atoms: _49  and  _52
REMARK   22  A    between atoms: _52  and  _53
REMARK   23  A    between atoms: _53  and  _54
REMARK   24  A    between atoms: _57  and  _59
REMARK   25  A    between atoms: _59  and  _60
REMARK   26  A    between atoms: _59  and  _62
REMARK   27  A    between atoms: _62  and  _63
REMARK   28  A    between atoms: _66  and  _68
REMARK   29  A    between atoms: _68  and  _69
REMARK   30  A    between atoms: _71  and  _73
REMARK   31  A    between atoms: _73  and  _74
REMARK   32  A    between atoms: _73  and  _76
REMARK   33  A    between atoms: _76  and  _77
REMARK   34  A    between atoms: _82  and  _84
REMARK   35  A    between atoms: _84  and  _85
REMARK   36  A    between atoms: _84  and  _87
REMARK   37  A    between atoms: _87  and  _88
REMARK   38  A    between atoms: _88  and  _89
REMARK   39  A    between atoms: _91  and  _93
REMARK   40  A    between atoms: _93  and  _94
REMARK   41  A    between atoms: _93  and  _96
REMARK   42  A    between atoms: _96  and  _97
REMARK   43  A    between atoms: _107  and  _109
REMARK   44  A    between atoms: _109  and  _110
REMARK   45  A    between atoms: _109  and  _112
REMARK   46  A    between atoms: _112  and  _113
REMARK   47  A    between atoms: _113  and  _114
REMARK   48  A    between atoms: _119  and  _121
REMARK   49  A    between atoms: _121  and  _122
REMARK   50  A    between atoms: _121  and  _124
REMARK   51  A    between atoms: _124  and  _125
REMARK   52  A    between atoms: _128  and  _130
REMARK   53  A    between atoms: _130  and  _131
REMARK   54  A    between atoms: _130  and  _133
REMARK   55  A    between atoms: _133  and  _134
REMARK   56  A    between atoms: _144  and  _146
REMARK   57  A    between atoms: _146  and  _147
REMARK   58  A    between atoms: _146  and  _149
REMARK   59  A    between atoms: _149  and  _150
REMARK   60  A    between atoms: _152  and  _154
REMARK   61  A    between atoms: _154  and  _155
REMARK   62  A    between atoms: _154  and  _157
REMARK   63  A    between atoms: _157  and  _158
REMARK   64  A    between atoms: _163  and  _165
REMARK   65  A    between atoms: _165  and  _166
REMARK   66  A    between atoms: _165  and  _168
REMARK   67  A    between atoms: _171  and  _173
REMARK   68  A    between atoms: _173  and  _174
REMARK   69  A    between atoms: _173  and  _176
REMARK   70  A    between atoms: _178  and  _180
REMARK   71  A    between atoms: _180  and  _181
REMARK   72  A    between atoms: _180  and  _183
REMARK   73  A    between atoms: _183  and  _184
REMARK   74  A    between atoms: _189  and  _191
REMARK   75  A    between atoms: _191  and  _192
REMARK   76  A    between atoms: _195  and  _197
REMARK   77  A    between atoms: _197  and  _198
REMARK   78  A    between atoms: _197  and  _200
REMARK   79  A    between atoms: _200  and  _201
REMARK   80  A    between atoms: _203  and  _205
REMARK   81  A    between atoms: _205  and  _206
REMARK   82  A    between atoms: _209  and  _211
REMARK   83  A    between atoms: _211  and  _212
REMARK   84  A    between atoms: _211  and  _214
REMARK   85  A    between atoms: _214  and  _215
REMARK   86  A    between atoms: _225  and  _227
REMARK   87  A    between atoms: _227  and  _228
REMARK   88  A    between atoms: _227  and  _230
REMARK   89  A    between atoms: _230  and  _231
REMARK   90  A    between atoms: _234  and  _236
REMARK   91  A    between atoms: _236  and  _237
REMARK   92  A    between atoms: _236  and  _239
REMARK   93  A    between atoms: _239  and  _240
REMARK   94  A    between atoms: _245  and  _246
REMARK   95  A    between atoms: _248  and  _250
REMARK   96  A    between atoms: _250  and  _251
REMARK   97  A    between atoms: _250  and  _253
REMARK   98  A    between atoms: _253  and  _254
REMARK   99  A    between atoms: _254  and  _255
REMARK  100  A    between atoms: _255  and  _256
REMARK  101  A    between atoms: _265  and  _267
REMARK  102  A    between atoms: _267  and  _268
REMARK  103  A    between atoms: _267  and  _270
REMARK  104  A    between atoms: _270  and  _271
REMARK  105  A    between atoms: _274  and  _276
REMARK  106  A    between atoms: _276  and  _277
REMARK  107  A    between atoms: _276  and  _279
REMARK  108  A    between atoms: _279  and  _280
REMARK  109  A    between atoms: _280  and  _281
REMARK  110  A    between atoms: _281  and  _282
REMARK  111  A    between atoms: _282  and  _283
REMARK  112  A    between atoms: _287  and  _289
REMARK  113  A    between atoms: _289  and  _290
REMARK  114  A    between atoms: _289  and  _292
REMARK  115  A    between atoms: _292  and  _293
REMARK  116  A    between atoms: _293  and  _294
REMARK  117  A    between atoms: _299  and  _301
REMARK  118  A    between atoms: _301  and  _302
REMARK  119  A    between atoms: _301  and  _304
REMARK  120  A    between atoms: _304  and  _305
REMARK  121  A    between atoms: _310  and  _312
REMARK  122  A    between atoms: _312  and  _313
REMARK  123  A    between atoms: _312  and  _315
REMARK  124  A    between atoms: _315  and  _316
REMARK  125  A    between atoms: _319  and  _321
REMARK  126  A    between atoms: _321  and  _322
REMARK  127  A    between atoms: _321  and  _324
REMARK  128  A    between atoms: _324  and  _325
REMARK  129  A    between atoms: _325  and  _326
REMARK  130  A    between atoms: _329  and  _331
REMARK  131  A    between atoms: _331  and  _332
REMARK  132  A    between atoms: _331  and  _334
REMARK  133  A    between atoms: _334  and  _335
REMARK  134  A    between atoms: _338  and  _340
REMARK  135  A    between atoms: _340  and  _341
REMARK  136  A    between atoms: _340  and  _343
REMARK  137  A    between atoms: _346  and  _348
REMARK  138  A    between atoms: _348  and  _349
REMARK  139  A    between atoms: _348  and  _351
REMARK  140  A    between atoms: _354  and  _356
REMARK  141  A    between atoms: _356  and  _357
REMARK  142  A    between atoms: _360  and  _362
REMARK  143  A    between atoms: _362  and  _363
REMARK  144  A    between atoms: _362  and  _365
REMARK  145  A    between atoms: _365  and  _366
REMARK  146  A    between atoms: _371  and  _373
REMARK  147  A    between atoms: _384  and  _387
REMARK  148  A    between atoms: _387  and  _388
REMARK  149  A    between atoms: _388  and  _389
REMARK  150  A    between atoms: _394  and  _397
REMARK  151  A    between atoms: _397  and  _398
REMARK  152  A    between atoms: _398  and  _399
REMARK  153  A    between atoms: _408  and  _409
REMARK  154  A    between atoms: _417  and  _419
REMARK  155  A    between atoms: _419  and  _420
REMARK  156  A    between atoms: _419  and  _422
REMARK  157  A    between atoms: _422  and  _423
REMARK  158  A    between atoms: _426  and  _428
REMARK  159  A    between atoms: _428  and  _429
REMARK  160  A    between atoms: _428  and  _431
REMARK  161  A    between atoms: _431  and  _432
REMARK  162  A    between atoms: _437  and  _438
REMARK  163  A    between atoms: _440  and  _442
REMARK  164  A    between atoms: _442  and  _443
REMARK  165  A    between atoms: _442  and  _445
REMARK  166  A    between atoms: _445  and  _446
REMARK  167  A    between atoms: _452  and  _454
REMARK  168  A    between atoms: _454  and  _455
REMARK  169  A    between atoms: _454  and  _457
REMARK  170  A    between atoms: _457  and  _458
REMARK  171  A    between atoms: _463  and  _464
REMARK  172  A    between atoms: _466  and  _468
REMARK  173  A    between atoms: _468  and  _469
REMARK  174  A    between atoms: _468  and  _471
REMARK  175  A    between atoms: _471  and  _472
REMARK  176  A    between atoms: _472  and  _473
REMARK  177  A    between atoms: _473  and  _474
REMARK  178  A    between atoms: _483  and  _485
REMARK  179  A    between atoms: _485  and  _486
REMARK  180  A    between atoms: _485  and  _488
REMARK  181  A    between atoms: _488  and  _489
REMARK  182  A    between atoms: _489  and  _490
REMARK  183  A    between atoms: _493  and  _495
REMARK  184  A    between atoms: _495  and  _496
REMARK  185  A    between atoms: _498  and  _500
REMARK  186  A    between atoms: _500  and  _501
REMARK  187  A    between atoms: _500  and  _503
REMARK  188  A    between atoms: _503  and  _504
REMARK  189  A    between atoms: _510  and  _511
REMARK  190  A    between atoms: _516  and  _518
REMARK  191  A    between atoms: _518  and  _519
REMARK  192  A    between atoms: _521  and  _523
REMARK  193  A    between atoms: _523  and  _524
REMARK  194  A    between atoms: _523  and  _526
REMARK  195  A    between atoms: _526  and  _527
REMARK  196  A    between atoms: _533  and  _535
REMARK  197  A    between atoms: _535  and  _536
REMARK  198  A    between atoms: _535  and  _538
REMARK  199  A    between atoms: _538  and  _539
REMARK  200  A    between atoms: _544  and  _546
REMARK  201  A    between atoms: _546  and  _547
REMARK  202  A    between atoms: _546  and  _549
REMARK  203  A    between atoms: _549  and  _550
REMARK  204  A    between atoms: _550  and  _551
REMARK  205  A    between atoms: _551  and  _552
REMARK  206  A    between atoms: _552  and  ZN_793
REMARK  207  A    between atoms: _554  and  _556
REMARK  208  A    between atoms: _556  and  _557
REMARK  209  A    between atoms: _560  and  _562
REMARK  210  A    between atoms: _562  and  _563
REMARK  211  A    between atoms: _562  and  _565
REMARK  212  A    between atoms: _565  and  _566
REMARK  213  A    between atoms: _569  and  _571
REMARK  214  A    between atoms: _571  and  _572
REMARK  215  A    between atoms: _575  and  _577
REMARK  216  A    between atoms: _577  and  _578
REMARK  217  A    between atoms: _577  and  _580
REMARK  218  A    between atoms: _580  and  _581
REMARK  219  A    between atoms: _584  and  _586
REMARK  220  A    between atoms: _586  and  _587
REMARK  221  A    between atoms: _586  and  _589
REMARK  222  A    between atoms: _589  and  _590
REMARK  223  A    between atoms: _590  and  _591
REMARK  224  A    between atoms: _591  and  _592
REMARK  225  A    between atoms: _592  and  _593
REMARK  226  A    between atoms: _597  and  _599
REMARK  227  A    between atoms: _599  and  _600
REMARK  228  A    between atoms: _599  and  _602
REMARK  229  A    between atoms: _602  and  _603
REMARK  230  A    between atoms: _609  and  _611
REMARK  231  A    between atoms: _611  and  _612
REMARK  232  A    between atoms: _611  and  _614
REMARK  233  A    between atoms: _614  and  _615
REMARK  234  A    between atoms: _621  and  _623
REMARK  235  A    between atoms: _623  and  _624
REMARK  236  A    between atoms: _623  and  _626
REMARK  237  A    between atoms: _626  and  _627
REMARK  238  A    between atoms: _629  and  _631
REMARK  239  A    between atoms: _631  and  _632
REMARK  240  A    between atoms: _631  and  _634
REMARK  241  A    between atoms: _637  and  _639
REMARK  242  A    between atoms: _639  and  _640
REMARK  243  A    between atoms: _639  and  _642
REMARK  244  A    between atoms: _642  and  _643
REMARK  245  A    between atoms: _643  and  _644
REMARK  246  A    between atoms: _644  and  _645
REMARK  247  A    between atoms: _645  and  _646
REMARK  248  A    between atoms: _650  and  _652
REMARK  249  A    between atoms: _652  and  _653
REMARK  250  A    between atoms: _652  and  _655
REMARK  251  A    between atoms: _655  and  _656
REMARK  252  A    between atoms: _662  and  _664
REMARK  253  A    between atoms: _664  and  _665
REMARK  254  A    between atoms: _664  and  _667
REMARK  255  A    between atoms: _667  and  _668
REMARK  256  A    between atoms: _673  and  _675
REMARK  257  A    between atoms: _675  and  _676
REMARK  258  A    between atoms: _675  and  _678
REMARK  259  A    between atoms: _678  and  _679
REMARK  260  A    between atoms: _681  and  _683
REMARK  261  A    between atoms: _683  and  _684
REMARK  262  A    between atoms: _683  and  _686
REMARK  263  A    between atoms: _686  and  _687
REMARK  264  A    between atoms: _689  and  _691
REMARK  265  A    between atoms: _691  and  _692
REMARK  266  A    between atoms: _691  and  _694
REMARK  267  A    between atoms: _698  and  _699
REMARK  268  A    between atoms: _704  and  _706
REMARK  269  A    between atoms: _706  and  _707
REMARK  270  A    between atoms: _706  and  _709
REMARK  271  A    between atoms: _709  and  _710
REMARK  272  A    between atoms: _715  and  _716
REMARK  273  A    between atoms: _718  and  _720
REMARK  274  A    between atoms: _720  and  _721
REMARK  275  A    between atoms: _720  and  _723
REMARK  276  A    between atoms: _723  and  _724
REMARK  277  A    between atoms: _724  and  _725
REMARK  278  A    between atoms: _725  and  _726
REMARK  279  A    between atoms: _735  and  _737
REMARK  280  A    between atoms: _737  and  _738
REMARK  281  A    between atoms: _737  and  _740
REMARK  282  A    between atoms: _740  and  _741
REMARK  283  A    between atoms: _746  and  _747
REMARK  284  A    between atoms: _749  and  _751
REMARK  285  A    between atoms: _751  and  _752
REMARK  286  A    between atoms: _751  and  _754
REMARK  287  A    between atoms: _754  and  _755
REMARK  288  A    between atoms: _761  and  _763
REMARK  289  A    between atoms: _763  and  _764
REMARK  290  A    between atoms: _763  and  _766
REMARK  291  A    between atoms: _766  and  _767
REMARK  292  A    between atoms: _769  and  _771
REMARK  293  A    between atoms: _771  and  _772
REMARK  294  A    between atoms: _771  and  _774
REMARK  295  A    between atoms: _774  and  _775
REMARK  296  A    between atoms: _781  and  _783
REMARK  297  A    between atoms: _783  and  _784
REMARK  298  A    between atoms: _783  and  _786
REMARK  299  A    between atoms: _786  and  _787
REMARK  300  A    between atoms: _787  and  _788
REMARK                            x       y       z     vdW  Elec       q    Type
REMARK                         _______ _______ _______ _____ _____    ______ ____
ROOT
ATOM      1  O   HOH     1      19.771 -11.991 -26.773  0.00  0.00    +0.000 OA
ENDROOT
TORSDOF 0
REMARK  Name = ../refined-set-2016/4ca5/4ca5_pocket.pdb
REMARK  300 active torsions:
REMARK  status: ('A' for Active; 'I' for Inactive)
REMARK    1  A    between atoms: _1  and  _3
REMARK    2  A    between atoms: _3  and  _4
REMARK    3  A    between atoms: _3  and  _6
REMARK    4  A    between atoms: _6  and  _7
REMARK    5  A    between atoms: _12  and  _14
REMARK    6  A    between atoms: _14  and  _15
REMARK    7  A    between atoms: _14  and  _17
REMARK    8  A    between atoms: _17  and  _18
REMARK    9  A    between atoms: _23  and  _25
REMARK   10  A    between atoms: _25  and  _26
REMARK   11  A    between atoms: _25  and  _28
REMARK   12  A    between atoms: _28  and  _29
REMARK   13  A    between atoms: _29  and  _30
REMARK   14  A    between atoms: _33  and  _35
REMARK   15  A    between atoms: _35  and  _36
REMARK   16  A    between atoms: _35  and  _38
REMARK   17  A    between atoms: _38  and  _39
REMARK   18  A    between atoms: _44  and  _45
REMARK   19  A    between atoms: _47  and  _49
REMARK   20  A    between atoms: _49  and  _50
REMARK   21  A    between atoms: _49  and  _52
REMARK   22  A    between atoms: _52  and  _53
REMARK   23  A    between atoms: _53  and  _54
REMARK   24  A    between atoms: _57  and  _59
REMARK   25  A    between atoms: _59  and  _60
REMARK   26  A    between atoms: _59  and  _62
REMARK   27  A    between atoms: _62  and  _63
REMARK   28  A    between atoms: _66  and  _68
REMARK   29  A    between atoms: _68  and  _69
REMARK   30  A    between atoms: _71  and  _73
REMARK   31  A    between atoms: _73  and  _74
REMARK   32  A    between atoms: _73  and  _76
REMARK   33  A    between atoms: _76  and  _77
REMARK   34  A    between atoms: _82  and  _84
REMARK   35  A    between atoms: _84  and  _85
REMARK   36  A    between atoms: _84  and  _87
REMARK   37  A    between atoms: _87  and  _88
REMARK   38  A    between atoms: _88  and  _89
REMARK   39  A    between atoms: _91  and  _93
REMARK   40  A    between atoms: _93  and  _94
REMARK   41  A    between atoms: _93  and  _96
REMARK   42  A    between atoms: _96  and  _97
REMARK   43  A    between atoms: _107  and  _109
REMARK   44  A    between atoms: _109  and  _110
REMARK   45  A    between atoms: _109  and  _112
REMARK   46  A    between atoms: _112  and  _113
REMARK   47  A    between atoms: _113  and  _114
REMARK   48  A    between atoms: _119  and  _121
REMARK   49  A    between atoms: _121  and  _122
REMARK   50  A    between atoms: _121  and  _124
REMARK   51  A    between atoms: _124  and  _125
REMARK   52  A    between atoms: _128  and  _130
REMARK   53  A    between atoms: _130  and  _131
REMARK   54  A    between atoms: _130  and  _133
REMARK   55  A    between atoms: _133  and  _134
REMARK   56  A    between atoms: _144  and  _146
REMARK   57  A    between atoms: _146  and  _147
REMARK   58  A    between atoms: _146  and  _149
REMARK   59  A    between atoms: _149  and  _150
REMARK   60  A    between atoms: _152  and  _154
REMARK   61  A    between atoms: _154  and  _155
REMARK   62  A    between atoms: _154  and  _157
REMARK   63  A    between atoms: _157  and  _158
REMARK   64  A    between atoms: _163  and  _165
REMARK   65  A    between atoms: _165  and  _166
REMARK   66  A    between atoms: _165  and  _168
REMARK   67  A    between atoms: _171  and  _173
REMARK   68  A    between atoms: _173  and  _174
REMARK   69  A    between atoms: _173  and  _176
REMARK   70  A    between atoms: _178  and  _180
REMARK   71  A    between atoms: _180  and  _181
REMARK   72  A    between atoms: _180  and  _183
REMARK   73  A    between atoms: _183  and  _184
REMARK   74  A    between atoms: _189  and  _191
REMARK   75  A    between atoms: _191  and  _192
REMARK   76  A    between atoms: _195  and  _197
REMARK   77  A    between atoms: _197  and  _198
REMARK   78  A    between atoms: _197  and  _200
REMARK   79  A    between atoms: _200  and  _201
REMARK   80  A    between atoms: _203  and  _205
REMARK   81  A    between atoms: _205  and  _206
REMARK   82  A    between atoms: _209  and  _211
REMARK   83  A    between atoms: _211  and  _212
REMARK   84  A    between atoms: _211  and  _214
REMARK   85  A    between atoms: _214  and  _215
REMARK   86  A    between atoms: _225  and  _227
REMARK   87  A    between atoms: _227  and  _228
REMARK   88  A    between atoms: _227  and  _230
REMARK   89  A    between atoms: _230  and  _231
REMARK   90  A    between atoms: _234  and  _236
REMARK   91  A    between atoms: _236  and  _237
REMARK   92  A    between atoms: _236  and  _239
REMARK   93  A    between atoms: _239  and  _240
REMARK   94  A    between atoms: _245  and  _246
REMARK   95  A    between atoms: _248  and  _250
REMARK   96  A    between atoms: _250  and  _251
REMARK   97  A    between atoms: _250  and  _253
REMARK   98  A    between atoms: _253  and  _254
REMARK   99  A    between atoms: _254  and  _255
REMARK  100  A    between atoms: _255  and  _256
REMARK  101  A    between atoms: _265  and  _267
REMARK  102  A    between atoms: _267  and  _268
REMARK  103  A    between atoms: _267  and  _270
REMARK  104  A    between atoms: _270  and  _271
REMARK  105  A    between atoms: _274  and  _276
REMARK  106  A    between atoms: _276  and  _277
REMARK  107  A    between atoms: _276  and  _279
REMARK  108  A    between atoms: _279  and  _280
REMARK  109  A    between atoms: _280  and  _281
REMARK  110  A    between atoms: _281  and  _282
REMARK  111  A    between atoms: _282  and  _283
REMARK  112  A    between atoms: _287  and  _289
REMARK  113  A    between atoms: _289  and  _290
REMARK  114  A    between atoms: _289  and  _292
REMARK  115  A    between atoms: _292  and  _293
REMARK  116  A    between atoms: _293  and  _294
REMARK  117  A    between atoms: _299  and  _301
REMARK  118  A    between atoms: _301  and  _302
REMARK  119  A    between atoms: _301  and  _304
REMARK  120  A    between atoms: _304  and  _305
REMARK  121  A    between atoms: _310  and  _312
REMARK  122  A    between atoms: _312  and  _313
REMARK  123  A    between atoms: _312  and  _315
REMARK  124  A    between atoms: _315  and  _316
REMARK  125  A    between atoms: _319  and  _321
REMARK  126  A    between atoms: _321  and  _322
REMARK  127  A    between atoms: _321  and  _324
REMARK  128  A    between atoms: _324  and  _325
REMARK  129  A    between atoms: _325  and  _326
REMARK  130  A    between atoms: _329  and  _331
REMARK  131  A    between atoms: _331  and  _332
REMARK  132  A    between atoms: _331  and  _334
REMARK  133  A    between atoms: _334  and  _335
REMARK  134  A    between atoms: _338  and  _340
REMARK  135  A    between atoms: _340  and  _341
REMARK  136  A    between atoms: _340  and  _343
REMARK  137  A    between atoms: _346  and  _348
REMARK  138  A    between atoms: _348  and  _349
REMARK  139  A    between atoms: _348  and  _351
REMARK  140  A    between atoms: _354  and  _356
REMARK  141  A    between atoms: _356  and  _357
REMARK  142  A    between atoms: _360  and  _362
REMARK  143  A    between atoms: _362  and  _363
REMARK  144  A    between atoms: _362  and  _365
REMARK  145  A    between atoms: _365  and  _366
REMARK  146  A    between atoms: _371  and  _373
REMARK  147  A    between atoms: _384  and  _387
REMARK  148  A    between atoms: _387  and  _388
REMARK  149  A    between atoms: _388  and  _389
REMARK  150  A    between atoms: _394  and  _397
REMARK  151  A    between atoms: _397  and  _398
REMARK  152  A    between atoms: _398  and  _399
REMARK  153  A    between atoms: _408  and  _409
REMARK  154  A    between atoms: _417  and  _419
REMARK  155  A    between atoms: _419  and  _420
REMARK  156  A    between atoms: _419  and  _422
REMARK  157  A    between atoms: _422  and  _423
REMARK  158  A    between atoms: _426  and  _428
REMARK  159  A    between atoms: _428  and  _429
REMARK  160  A    between atoms: _428  and  _431
REMARK  161  A    between atoms: _431  and  _432
REMARK  162  A    between atoms: _437  and  _438
REMARK  163  A    between atoms: _440  and  _442
REMARK  164  A    between atoms: _442  and  _443
REMARK  165  A    between atoms: _442  and  _445
REMARK  166  A    between atoms: _445  and  _446
REMARK  167  A    between atoms: _452  and  _454
REMARK  168  A    between atoms: _454  and  _455
REMARK  169  A    between atoms: _454  and  _457
REMARK  170  A    between atoms: _457  and  _458
REMARK  171  A    between atoms: _463  and  _464
REMARK  172  A    between atoms: _466  and  _468
REMARK  173  A    between atoms: _468  and  _469
REMARK  174  A    between atoms: _468  and  _471
REMARK  175  A    between atoms: _471  and  _472
REMARK  176  A    between atoms: _472  and  _473
REMARK  177  A    between atoms: _473  and  _474
REMARK  178  A    between atoms: _483  and  _485
REMARK  179  A    between atoms: _485  and  _486
REMARK  180  A    between atoms: _485  and  _488
REMARK  181  A    between atoms: _488  and  _489
REMARK  182  A    between atoms: _489  and  _490
REMARK  183  A    between atoms: _493  and  _495
REMARK  184  A    between atoms: _495  and  _496
REMARK  185  A    between atoms: _498  and  _500
REMARK  186  A    between atoms: _500  and  _501
REMARK  187  A    between atoms: _500  and  _503
REMARK  188  A    between atoms: _503  and  _504
REMARK  189  A    between atoms: _510  and  _511
REMARK  190  A    between atoms: _516  and  _518
REMARK  191  A    between atoms: _518  and  _519
REMARK  192  A    between atoms: _521  and  _523
REMARK  193  A    between atoms: _523  and  _524
REMARK  194  A    between atoms: _523  and  _526
REMARK  195  A    between atoms: _526  and  _527
REMARK  196  A    between atoms: _533  and  _535
REMARK  197  A    between atoms: _535  and  _536
REMARK  198  A    between atoms: _535  and  _538
REMARK  199  A    between atoms: _538  and  _539
REMARK  200  A    between atoms: _544  and  _546
REMARK  201  A    between atoms: _546  and  _547
REMARK  202  A    between atoms: _546  and  _549
REMARK  203  A    between atoms: _549  and  _550
REMARK  204  A    between atoms: _550  and  _551
REMARK  205  A    between atoms: _551  and  _552
REMARK  206  A    between atoms: _552  and  ZN_793
REMARK  207  A    between atoms: _554  and  _556
REMARK  208  A    between atoms: _556  and  _557
REMARK  209  A    between atoms: _560  and  _562
REMARK  210  A    between atoms: _562  and  _563
REMARK  211  A    between atoms: _562  and  _565
REMARK  212  A    between atoms: _565  and  _566
REMARK  213  A    between atoms: _569  and  _571
REMARK  214  A    between atoms: _571  and  _572
REMARK  215  A    between atoms: _575  and  _577
REMARK  216  A    between atoms: _577  and  _578
REMARK  217  A    between atoms: _577  and  _580
REMARK  218  A    between atoms: _580  and  _581
REMARK  219  A    between atoms: _584  and  _586
REMARK  220  A    between atoms: _586  and  _587
REMARK  221  A    between atoms: _586  and  _589
REMARK  222  A    between atoms: _589  and  _590
REMARK  223  A    between atoms: _590  and  _591
REMARK  224  A    between atoms: _591  and  _592
REMARK  225  A    between atoms: _592  and  _593
REMARK  226  A    between atoms: _597  and  _599
REMARK  227  A    between atoms: _599  and  _600
REMARK  228  A    between atoms: _599  and  _602
REMARK  229  A    between atoms: _602  and  _603
REMARK  230  A    between atoms: _609  and  _611
REMARK  231  A    between atoms: _611  and  _612
REMARK  232  A    between atoms: _611  and  _614
REMARK  233  A    between atoms: _614  and  _615
REMARK  234  A    between atoms: _621  and  _623
REMARK  235  A    between atoms: _623  and  _624
REMARK  236  A    between atoms: _623  and  _626
REMARK  237  A    between atoms: _626  and  _627
REMARK  238  A    between atoms: _629  and  _631
REMARK  239  A    between atoms: _631  and  _632
REMARK  240  A    between atoms: _631  and  _634
REMARK  241  A    between atoms: _637  and  _639
REMARK  242  A    between atoms: _639  and  _640
REMARK  243  A    between atoms: _639  and  _642
REMARK  244  A    between atoms: _642  and  _643
REMARK  245  A    between atoms: _643  and  _644
REMARK  246  A    between atoms: _644  and  _645
REMARK  247  A    between atoms: _645  and  _646
REMARK  248  A    between atoms: _650  and  _652
REMARK  249  A    between atoms: _652  and  _653
REMARK  250  A    between atoms: _652  and  _655
REMARK  251  A    between atoms: _655  and  _656
REMARK  252  A    between atoms: _662  and  _664
REMARK  253  A    between atoms: _664  and  _665
REMARK  254  A    between atoms: _664  and  _667
REMARK  255  A    between atoms: _667  and  _668
REMARK  256  A    between atoms: _673  and  _675
REMARK  257  A    between atoms: _675  and  _676
REMARK  258  A    between atoms: _675  and  _678
REMARK  259  A    between atoms: _678  and  _679
REMARK  260  A    between atoms: _681  and  _683
REMARK  261  A    between atoms: _683  and  _684
REMARK  262  A    between atoms: _683  and  _686
REMARK  263  A    between atoms: _686  and  _687
REMARK  264  A    between atoms: _689  and  _691
REMARK  265  A    between atoms: _691  and  _692
REMARK  266  A    between atoms: _691  and  _694
REMARK  267  A    between atoms: _698  and  _699
REMARK  268  A    between atoms: _704  and  _706
REMARK  269  A    between atoms: _706  and  _707
REMARK  270  A    between atoms: _706  and  _709
REMARK  271  A    between atoms: _709  and  _710
REMARK  272  A    between atoms: _715  and  _716
REMARK  273  A    between atoms: _718  and  _720
REMARK  274  A    between atoms: _720  and  _721
REMARK  275  A    between atoms: _720  and  _723
REMARK  276  A    between atoms: _723  and  _724
REMARK  277  A    between atoms: _724  and  _725
REMARK  278  A    between atoms: _725  and  _726
REMARK  279  A    between atoms: _735  and  _737
REMARK  280  A    between atoms: _737  and  _738
REMARK  281  A    between atoms: _737  and  _740
REMARK  282  A    between atoms: _740  and  _741
REMARK  283  A    between atoms: _746  and  _747
REMARK  284  A    between atoms: _749  and  _751
REMARK  285  A    between atoms: _751  and  _752
REMARK  286  A    between atoms: _751  and  _754
REMARK  287  A    between atoms: _754  and  _755
REMARK  288  A    between atoms: _761  and  _763
REMARK  289  A    between atoms: _763  and  _764
REMARK  290  A    between atoms: _763  and  _766
REMARK  291  A    between atoms: _766  and  _767
REMARK  292  A    between atoms: _769  and  _771
REMARK  293  A    between atoms: _771  and  _772
REMARK  294  A    between atoms: _771  and  _774
REMARK  295  A    between atoms: _774  and  _775
REMARK  296  A    between atoms: _781  and  _783
REMARK  297  A    between atoms: _783  and  _784
REMARK  298  A    between atoms: _783  and  _786
REMARK  299  A    between atoms: _786  and  _787
REMARK  300  A    between atoms: _787  and  _788
REMARK                            x       y       z     vdW  Elec       q    Type
REMARK                         _______ _______ _______ _____ _____    ______ ____
ROOT
ATOM      1  O   HOH     1      19.280  -9.413 -25.507  0.00  0.00    +0.000 OA
ENDROOT
TORSDOF 0
REMARK  Name = ../refined-set-2016/4ca5/4ca5_pocket.pdb
REMARK  300 active torsions:
REMARK  status: ('A' for Active; 'I' for Inactive)
REMARK    1  A    between atoms: _1  and  _3
REMARK    2  A    between atoms: _3  and  _4
REMARK    3  A    between atoms: _3  and  _6
REMARK    4  A    between atoms: _6  and  _7
REMARK    5  A    between atoms: _12  and  _14
REMARK    6  A    between atoms: _14  and  _15
REMARK    7  A    between atoms: _14  and  _17
REMARK    8  A    between atoms: _17  and  _18
REMARK    9  A    between atoms: _23  and  _25
REMARK   10  A    between atoms: _25  and  _26
REMARK   11  A    between atoms: _25  and  _28
REMARK   12  A    between atoms: _28  and  _29
REMARK   13  A    between atoms: _29  and  _30
REMARK   14  A    between atoms: _33  and  _35
REMARK   15  A    between atoms: _35  and  _36
REMARK   16  A    between atoms: _35  and  _38
REMARK   17  A    between atoms: _38  and  _39
REMARK   18  A    between atoms: _44  and  _45
REMARK   19  A    between atoms: _47  and  _49
REMARK   20  A    between atoms: _49  and  _50
REMARK   21  A    between atoms: _49  and  _52
REMARK   22  A    between atoms: _52  and  _53
REMARK   23  A    between atoms: _53  and  _54
REMARK   24  A    between atoms: _57  and  _59
REMARK   25  A    between atoms: _59  and  _60
REMARK   26  A    between atoms: _59  and  _62
REMARK   27  A    between atoms: _62  and  _63
REMARK   28  A    between atoms: _66  and  _68
REMARK   29  A    between atoms: _68  and  _69
REMARK   30  A    between atoms: _71  and  _73
REMARK   31  A    between atoms: _73  and  _74
REMARK   32  A    between atoms: _73  and  _76
REMARK   33  A    between atoms: _76  and  _77
REMARK   34  A    between atoms: _82  and  _84
REMARK   35  A    between atoms: _84  and  _85
REMARK   36  A    between atoms: _84  and  _87
REMARK   37  A    between atoms: _87  and  _88
REMARK   38  A    between atoms: _88  and  _89
REMARK   39  A    between atoms: _91  and  _93
REMARK   40  A    between atoms: _93  and  _94
REMARK   41  A    between atoms: _93  and  _96
REMARK   42  A    between atoms: _96  and  _97
REMARK   43  A    between atoms: _107  and  _109
REMARK   44  A    between atoms: _109  and  _110
REMARK   45  A    between atoms: _109  and  _112
REMARK   46  A    between atoms: _112  and  _113
REMARK   47  A    between atoms: _113  and  _114
REMARK   48  A    between atoms: _119  and  _121
REMARK   49  A    between atoms: _121  and  _122
REMARK   50  A    between atoms: _121  and  _124
REMARK   51  A    between atoms: _124  and  _125
REMARK   52  A    between atoms: _128  and  _130
REMARK   53  A    between atoms: _130  and  _131
REMARK   54  A    between atoms: _130  and  _133
REMARK   55  A    between atoms: _133  and  _134
REMARK   56  A    between atoms: _144  and  _146
REMARK   57  A    between atoms: _146  and  _147
REMARK   58  A    between atoms: _146  and  _149
REMARK   59  A    between atoms: _149  and  _150
REMARK   60  A    between atoms: _152  and  _154
REMARK   61  A    between atoms: _154  and  _155
REMARK   62  A    between atoms: _154  and  _157
REMARK   63  A    between atoms: _157  and  _158
REMARK   64  A    between atoms: _163  and  _165
REMARK   65  A    between atoms: _165  and  _166
REMARK   66  A    between atoms: _165  and  _168
REMARK   67  A    between atoms: _171  and  _173
REMARK   68  A    between atoms: _173  and  _174
REMARK   69  A    between atoms: _173  and  _176
REMARK   70  A    between atoms: _178  and  _180
REMARK   71  A    between atoms: _180  and  _181
REMARK   72  A    between atoms: _180  and  _183
REMARK   73  A    between atoms: _183  and  _184
REMARK   74  A    between atoms: _189  and  _191
REMARK   75  A    between atoms: _191  and  _192
REMARK   76  A    between atoms: _195  and  _197
REMARK   77  A    between atoms: _197  and  _198
REMARK   78  A    between atoms: _197  and  _200
REMARK   79  A    between atoms: _200  and  _201
REMARK   80  A    between atoms: _203  and  _205
REMARK   81  A    between atoms: _205  and  _206
REMARK   82  A    between atoms: _209  and  _211
REMARK   83  A    between atoms: _211  and  _212
REMARK   84  A    between atoms: _211  and  _214
REMARK   85  A    between atoms: _214  and  _215
REMARK   86  A    between atoms: _225  and  _227
REMARK   87  A    between atoms: _227  and  _228
REMARK   88  A    between atoms: _227  and  _230
REMARK   89  A    between atoms: _230  and  _231
REMARK   90  A    between atoms: _234  and  _236
REMARK   91  A    between atoms: _236  and  _237
REMARK   92  A    between atoms: _236  and  _239
REMARK   93  A    between atoms: _239  and  _240
REMARK   94  A    between atoms: _245  and  _246
REMARK   95  A    between atoms: _248  and  _250
REMARK   96  A    between atoms: _250  and  _251
REMARK   97  A    between atoms: _250  and  _253
REMARK   98  A    between atoms: _253  and  _254
REMARK   99  A    between atoms: _254  and  _255
REMARK  100  A    between atoms: _255  and  _256
REMARK  101  A    between atoms: _265  and  _267
REMARK  102  A    between atoms: _267  and  _268
REMARK  103  A    between atoms: _267  and  _270
REMARK  104  A    between atoms: _270  and  _271
REMARK  105  A    between atoms: _274  and  _276
REMARK  106  A    between atoms: _276  and  _277
REMARK  107  A    between atoms: _276  and  _279
REMARK  108  A    between atoms: _279  and  _280
REMARK  109  A    between atoms: _280  and  _281
REMARK  110  A    between atoms: _281  and  _282
REMARK  111  A    between atoms: _282  and  _283
REMARK  112  A    between atoms: _287  and  _289
REMARK  113  A    between atoms: _289  and  _290
REMARK  114  A    between atoms: _289  and  _292
REMARK  115  A    between atoms: _292  and  _293
REMARK  116  A    between atoms: _293  and  _294
REMARK  117  A    between atoms: _299  and  _301
REMARK  118  A    between atoms: _301  and  _302
REMARK  119  A    between atoms: _301  and  _304
REMARK  120  A    between atoms: _304  and  _305
REMARK  121  A    between atoms: _310  and  _312
REMARK  122  A    between atoms: _312  and  _313
REMARK  123  A    between atoms: _312  and  _315
REMARK  124  A    between atoms: _315  and  _316
REMARK  125  A    between atoms: _319  and  _321
REMARK  126  A    between atoms: _321  and  _322
REMARK  127  A    between atoms: _321  and  _324
REMARK  128  A    between atoms: _324  and  _325
REMARK  129  A    between atoms: _325  and  _326
REMARK  130  A    between atoms: _329  and  _331
REMARK  131  A    between atoms: _331  and  _332
REMARK  132  A    between atoms: _331  and  _334
REMARK  133  A    between atoms: _334  and  _335
REMARK  134  A    between atoms: _338  and  _340
REMARK  135  A    between atoms: _340  and  _341
REMARK  136  A    between atoms: _340  and  _343
REMARK  137  A    between atoms: _346  and  _348
REMARK  138  A    between atoms: _348  and  _349
REMARK  139  A    between atoms: _348  and  _351
REMARK  140  A    between atoms: _354  and  _356
REMARK  141  A    between atoms: _356  and  _357
REMARK  142  A    between atoms: _360  and  _362
REMARK  143  A    between atoms: _362  and  _363
REMARK  144  A    between atoms: _362  and  _365
REMARK  145  A    between atoms: _365  and  _366
REMARK  146  A    between atoms: _371  and  _373
REMARK  147  A    between atoms: _384  and  _387
REMARK  148  A    between atoms: _387  and  _388
REMARK  149  A    between atoms: _388  and  _389
REMARK  150  A    between atoms: _394  and  _397
REMARK  151  A    between atoms: _397  and  _398
REMARK  152  A    between atoms: _398  and  _399
REMARK  153  A    between atoms: _408  and  _409
REMARK  154  A    between atoms: _417  and  _419
REMARK  155  A    between atoms: _419  and  _420
REMARK  156  A    between atoms: _419  and  _422
REMARK  157  A    between atoms: _422  and  _423
REMARK  158  A    between atoms: _426  and  _428
REMARK  159  A    between atoms: _428  and  _429
REMARK  160  A    between atoms: _428  and  _431
REMARK  161  A    between atoms: _431  and  _432
REMARK  162  A    between atoms: _437  and  _438
REMARK  163  A    between atoms: _440  and  _442
REMARK  164  A    between atoms: _442  and  _443
REMARK  165  A    between atoms: _442  and  _445
REMARK  166  A    between atoms: _445  and  _446
REMARK  167  A    between atoms: _452  and  _454
REMARK  168  A    between atoms: _454  and  _455
REMARK  169  A    between atoms: _454  and  _457
REMARK  170  A    between atoms: _457  and  _458
REMARK  171  A    between atoms: _463  and  _464
REMARK  172  A    between atoms: _466  and  _468
REMARK  173  A    between atoms: _468  and  _469
REMARK  174  A    between atoms: _468  and  _471
REMARK  175  A    between atoms: _471  and  _472
REMARK  176  A    between atoms: _472  and  _473
REMARK  177  A    between atoms: _473  and  _474
REMARK  178  A    between atoms: _483  and  _485
REMARK  179  A    between atoms: _485  and  _486
REMARK  180  A    between atoms: _485  and  _488
REMARK  181  A    between atoms: _488  and  _489
REMARK  182  A    between atoms: _489  and  _490
REMARK  183  A    between atoms: _493  and  _495
REMARK  184  A    between atoms: _495  and  _496
REMARK  185  A    between atoms: _498  and  _500
REMARK  186  A    between atoms: _500  and  _501
REMARK  187  A    between atoms: _500  and  _503
REMARK  188  A    between atoms: _503  and  _504
REMARK  189  A    between atoms: _510  and  _511
REMARK  190  A    between atoms: _516  and  _518
REMARK  191  A    between atoms: _518  and  _519
REMARK  192  A    between atoms: _521  and  _523
REMARK  193  A    between atoms: _523  and  _524
REMARK  194  A    between atoms: _523  and  _526
REMARK  195  A    between atoms: _526  and  _527
REMARK  196  A    between atoms: _533  and  _535
REMARK  197  A    between atoms: _535  and  _536
REMARK  198  A    between atoms: _535  and  _538
REMARK  199  A    between atoms: _538  and  _539
REMARK  200  A    between atoms: _544  and  _546
REMARK  201  A    between atoms: _546  and  _547
REMARK  202  A    between atoms: _546  and  _549
REMARK  203  A    between atoms: _549  and  _550
REMARK  204  A    between atoms: _550  and  _551
REMARK  205  A    between atoms: _551  and  _552
REMARK  206  A    between atoms: _552  and  ZN_793
REMARK  207  A    between atoms: _554  and  _556
REMARK  208  A    between atoms: _556  and  _557
REMARK  209  A    between atoms: _560  and  _562
REMARK  210  A    between atoms: _562  and  _563
REMARK  211  A    between atoms: _562  and  _565
REMARK  212  A    between atoms: _565  and  _566
REMARK  213  A    between atoms: _569  and  _571
REMARK  214  A    between atoms: _571  and  _572
REMARK  215  A    between atoms: _575  and  _577
REMARK  216  A    between atoms: _577  and  _578
REMARK  217  A    between atoms: _577  and  _580
REMARK  218  A    between atoms: _580  and  _581
REMARK  219  A    between atoms: _584  and  _586
REMARK  220  A    between atoms: _586  and  _587
REMARK  221  A    between atoms: _586  and  _589
REMARK  222  A    between atoms: _589  and  _590
REMARK  223  A    between atoms: _590  and  _591
REMARK  224  A    between atoms: _591  and  _592
REMARK  225  A    between atoms: _592  and  _593
REMARK  226  A    between atoms: _597  and  _599
REMARK  227  A    between atoms: _599  and  _600
REMARK  228  A    between atoms: _599  and  _602
REMARK  229  A    between atoms: _602  and  _603
REMARK  230  A    between atoms: _609  and  _611
REMARK  231  A    between atoms: _611  and  _612
REMARK  232  A    between atoms: _611  and  _614
REMARK  233  A    between atoms: _614  and  _615
REMARK  234  A    between atoms: _621  and  _623
REMARK  235  A    between atoms: _623  and  _624
REMARK  236  A    between atoms: _623  and  _626
REMARK  237  A    between atoms: _626  and  _627
REMARK  238  A    between atoms: _629  and  _631
REMARK  239  A    between atoms: _631  and  _632
REMARK  240  A    between atoms: _631  and  _634
REMARK  241  A    between atoms: _637  and  _639
REMARK  242  A    between atoms: _639  and  _640
REMARK  243  A    between atoms: _639  and  _642
REMARK  244  A    between atoms: _642  and  _643
REMARK  245  A    between atoms: _643  and  _644
REMARK  246  A    between atoms: _644  and  _645
REMARK  247  A    between atoms: _645  and  _646
REMARK  248  A    between atoms: _650  and  _652
REMARK  249  A    between atoms: _652  and  _653
REMARK  250  A    between atoms: _652  and  _655
REMARK  251  A    between atoms: _655  and  _656
REMARK  252  A    between atoms: _662  and  _664
REMARK  253  A    between atoms: _664  and  _665
REMARK  254  A    between atoms: _664  and  _667
REMARK  255  A    between atoms: _667  and  _668
REMARK  256  A    between atoms: _673  and  _675
REMARK  257  A    between atoms: _675  and  _676
REMARK  258  A    between atoms: _675  and  _678
REMARK  259  A    between atoms: _678  and  _679
REMARK  260  A    between atoms: _681  and  _683
REMARK  261  A    between atoms: _683  and  _684
REMARK  262  A    between atoms: _683  and  _686
REMARK  263  A    between atoms: _686  and  _687
REMARK  264  A    between atoms: _689  and  _691
REMARK  265  A    between atoms: _691  and  _692
REMARK  266  A    between atoms: _691  and  _694
REMARK  267  A    between atoms: _698  and  _699
REMARK  268  A    between atoms: _704  and  _706
REMARK  269  A    between atoms: _706  and  _707
REMARK  270  A    between atoms: _706  and  _709
REMARK  271  A    between atoms: _709  and  _710
REMARK  272  A    between atoms: _715  and  _716
REMARK  273  A    between atoms: _718  and  _720
REMARK  274  A    between atoms: _720  and  _721
REMARK  275  A    between atoms: _720  and  _723
REMARK  276  A    between atoms: _723  and  _724
REMARK  277  A    between atoms: _724  and  _725
REMARK  278  A    between atoms: _725  and  _726
REMARK  279  A    between atoms: _735  and  _737
REMARK  280  A    between atoms: _737  and  _738
REMARK  281  A    between atoms: _737  and  _740
REMARK  282  A    between atoms: _740  and  _741
REMARK  283  A    between atoms: _746  and  _747
REMARK  284  A    between atoms: _749  and  _751
REMARK  285  A    between atoms: _751  and  _752
REMARK  286  A    between atoms: _751  and  _754
REMARK  287  A    between atoms: _754  and  _755
REMARK  288  A    between atoms: _761  and  _763
REMARK  289  A    between atoms: _763  and  _764
REMARK  290  A    between atoms: _763  and  _766
REMARK  291  A    between atoms: _766  and  _767
REMARK  292  A    between atoms: _769  and  _771
REMARK  293  A    between atoms: _771  and  _772
REMARK  294  A    between atoms: _771  and  _774
REMARK  295  A    between atoms: _774  and  _775
REMARK  296  A    between atoms: _781  and  _783
REMARK  297  A    between atoms: _783  and  _784
REMARK  298  A    between atoms: _783  and  _786
REMARK  299  A    between atoms: _786  and  _787
REMARK  300  A    between atoms: _787  and  _788
REMARK                            x       y       z     vdW  Elec       q    Type
REMARK                         _______ _______ _______ _____ _____    ______ ____
ROOT
ATOM      1  O   HOH     1      20.384  -1.953 -20.763  0.00  0.00    +0.000 OA
ENDROOT
TORSDOF 0
REMARK  Name = ../refined-set-2016/4ca5/4ca5_pocket.pdb
REMARK  300 active torsions:
REMARK  status: ('A' for Active; 'I' for Inactive)
REMARK    1  A    between atoms: _1  and  _3
REMARK    2  A    between atoms: _3  and  _4
REMARK    3  A    between atoms: _3  and  _6
REMARK    4  A    between atoms: _6  and  _7
REMARK    5  A    between atoms: _12  and  _14
REMARK    6  A    between atoms: _14  and  _15
REMARK    7  A    between atoms: _14  and  _17
REMARK    8  A    between atoms: _17  and  _18
REMARK    9  A    between atoms: _23  and  _25
REMARK   10  A    between atoms: _25  and  _26
REMARK   11  A    between atoms: _25  and  _28
REMARK   12  A    between atoms: _28  and  _29
REMARK   13  A    between atoms: _29  and  _30
REMARK   14  A    between atoms: _33  and  _35
REMARK   15  A    between atoms: _35  and  _36
REMARK   16  A    between atoms: _35  and  _38
REMARK   17  A    between atoms: _38  and  _39
REMARK   18  A    between atoms: _44  and  _45
REMARK   19  A    between atoms: _47  and  _49
REMARK   20  A    between atoms: _49  and  _50
REMARK   21  A    between atoms: _49  and  _52
REMARK   22  A    between atoms: _52  and  _53
REMARK   23  A    between atoms: _53  and  _54
REMARK   24  A    between atoms: _57  and  _59
REMARK   25  A    between atoms: _59  and  _60
REMARK   26  A    between atoms: _59  and  _62
REMARK   27  A    between atoms: _62  and  _63
REMARK   28  A    between atoms: _66  and  _68
REMARK   29  A    between atoms: _68  and  _69
REMARK   30  A    between atoms: _71  and  _73
REMARK   31  A    between atoms: _73  and  _74
REMARK   32  A    between atoms: _73  and  _76
REMARK   33  A    between atoms: _76  and  _77
REMARK   34  A    between atoms: _82  and  _84
REMARK   35  A    between atoms: _84  and  _85
REMARK   36  A    between atoms: _84  and  _87
REMARK   37  A    between atoms: _87  and  _88
REMARK   38  A    between atoms: _88  and  _89
REMARK   39  A    between atoms: _91  and  _93
REMARK   40  A    between atoms: _93  and  _94
REMARK   41  A    between atoms: _93  and  _96
REMARK   42  A    between atoms: _96  and  _97
REMARK   43  A    between atoms: _107  and  _109
REMARK   44  A    between atoms: _109  and  _110
REMARK   45  A    between atoms: _109  and  _112
REMARK   46  A    between atoms: _112  and  _113
REMARK   47  A    between atoms: _113  and  _114
REMARK   48  A    between atoms: _119  and  _121
REMARK   49  A    between atoms: _121  and  _122
REMARK   50  A    between atoms: _121  and  _124
REMARK   51  A    between atoms: _124  and  _125
REMARK   52  A    between atoms: _128  and  _130
REMARK   53  A    between atoms: _130  and  _131
REMARK   54  A    between atoms: _130  and  _133
REMARK   55  A    between atoms: _133  and  _134
REMARK   56  A    between atoms: _144  and  _146
REMARK   57  A    between atoms: _146  and  _147
REMARK   58  A    between atoms: _146  and  _149
REMARK   59  A    between atoms: _149  and  _150
REMARK   60  A    between atoms: _152  and  _154
REMARK   61  A    between atoms: _154  and  _155
REMARK   62  A    between atoms: _154  and  _157
REMARK   63  A    between atoms: _157  and  _158
REMARK   64  A    between atoms: _163  and  _165
REMARK   65  A    between atoms: _165  and  _166
REMARK   66  A    between atoms: _165  and  _168
REMARK   67  A    between atoms: _171  and  _173
REMARK   68  A    between atoms: _173  and  _174
REMARK   69  A    between atoms: _173  and  _176
REMARK   70  A    between atoms: _178  and  _180
REMARK   71  A    between atoms: _180  and  _181
REMARK   72  A    between atoms: _180  and  _183
REMARK   73  A    between atoms: _183  and  _184
REMARK   74  A    between atoms: _189  and  _191
REMARK   75  A    between atoms: _191  and  _192
REMARK   76  A    between atoms: _195  and  _197
REMARK   77  A    between atoms: _197  and  _198
REMARK   78  A    between atoms: _197  and  _200
REMARK   79  A    between atoms: _200  and  _201
REMARK   80  A    between atoms: _203  and  _205
REMARK   81  A    between atoms: _205  and  _206
REMARK   82  A    between atoms: _209  and  _211
REMARK   83  A    between atoms: _211  and  _212
REMARK   84  A    between atoms: _211  and  _214
REMARK   85  A    between atoms: _214  and  _215
REMARK   86  A    between atoms: _225  and  _227
REMARK   87  A    between atoms: _227  and  _228
REMARK   88  A    between atoms: _227  and  _230
REMARK   89  A    between atoms: _230  and  _231
REMARK   90  A    between atoms: _234  and  _236
REMARK   91  A    between atoms: _236  and  _237
REMARK   92  A    between atoms: _236  and  _239
REMARK   93  A    between atoms: _239  and  _240
REMARK   94  A    between atoms: _245  and  _246
REMARK   95  A    between atoms: _248  and  _250
REMARK   96  A    between atoms: _250  and  _251
REMARK   97  A    between atoms: _250  and  _253
REMARK   98  A    between atoms: _253  and  _254
REMARK   99  A    between atoms: _254  and  _255
REMARK  100  A    between atoms: _255  and  _256
REMARK  101  A    between atoms: _265  and  _267
REMARK  102  A    between atoms: _267  and  _268
REMARK  103  A    between atoms: _267  and  _270
REMARK  104  A    between atoms: _270  and  _271
REMARK  105  A    between atoms: _274  and  _276
REMARK  106  A    between atoms: _276  and  _277
REMARK  107  A    between atoms: _276  and  _279
REMARK  108  A    between atoms: _279  and  _280
REMARK  109  A    between atoms: _280  and  _281
REMARK  110  A    between atoms: _281  and  _282
REMARK  111  A    between atoms: _282  and  _283
REMARK  112  A    between atoms: _287  and  _289
REMARK  113  A    between atoms: _289  and  _290
REMARK  114  A    between atoms: _289  and  _292
REMARK  115  A    between atoms: _292  and  _293
REMARK  116  A    between atoms: _293  and  _294
REMARK  117  A    between atoms: _299  and  _301
REMARK  118  A    between atoms: _301  and  _302
REMARK  119  A    between atoms: _301  and  _304
REMARK  120  A    between atoms: _304  and  _305
REMARK  121  A    between atoms: _310  and  _312
REMARK  122  A    between atoms: _312  and  _313
REMARK  123  A    between atoms: _312  and  _315
REMARK  124  A    between atoms: _315  and  _316
REMARK  125  A    between atoms: _319  and  _321
REMARK  126  A    between atoms: _321  and  _322
REMARK  127  A    between atoms: _321  and  _324
REMARK  128  A    between atoms: _324  and  _325
REMARK  129  A    between atoms: _325  and  _326
REMARK  130  A    between atoms: _329  and  _331
REMARK  131  A    between atoms: _331  and  _332
REMARK  132  A    between atoms: _331  and  _334
REMARK  133  A    between atoms: _334  and  _335
REMARK  134  A    between atoms: _338  and  _340
REMARK  135  A    between atoms: _340  and  _341
REMARK  136  A    between atoms: _340  and  _343
REMARK  137  A    between atoms: _346  and  _348
REMARK  138  A    between atoms: _348  and  _349
REMARK  139  A    between atoms: _348  and  _351
REMARK  140  A    between atoms: _354  and  _356
REMARK  141  A    between atoms: _356  and  _357
REMARK  142  A    between atoms: _360  and  _362
REMARK  143  A    between atoms: _362  and  _363
REMARK  144  A    between atoms: _362  and  _365
REMARK  145  A    between atoms: _365  and  _366
REMARK  146  A    between atoms: _371  and  _373
REMARK  147  A    between atoms: _384  and  _387
REMARK  148  A    between atoms: _387  and  _388
REMARK  149  A    between atoms: _388  and  _389
REMARK  150  A    between atoms: _394  and  _397
REMARK  151  A    between atoms: _397  and  _398
REMARK  152  A    between atoms: _398  and  _399
REMARK  153  A    between atoms: _408  and  _409
REMARK  154  A    between atoms: _417  and  _419
REMARK  155  A    between atoms: _419  and  _420
REMARK  156  A    between atoms: _419  and  _422
REMARK  157  A    between atoms: _422  and  _423
REMARK  158  A    between atoms: _426  and  _428
REMARK  159  A    between atoms: _428  and  _429
REMARK  160  A    between atoms: _428  and  _431
REMARK  161  A    between atoms: _431  and  _432
REMARK  162  A    between atoms: _437  and  _438
REMARK  163  A    between atoms: _440  and  _442
REMARK  164  A    between atoms: _442  and  _443
REMARK  165  A    between atoms: _442  and  _445
REMARK  166  A    between atoms: _445  and  _446
REMARK  167  A    between atoms: _452  and  _454
REMARK  168  A    between atoms: _454  and  _455
REMARK  169  A    between atoms: _454  and  _457
REMARK  170  A    between atoms: _457  and  _458
REMARK  171  A    between atoms: _463  and  _464
REMARK  172  A    between atoms: _466  and  _468
REMARK  173  A    between atoms: _468  and  _469
REMARK  174  A    between atoms: _468  and  _471
REMARK  175  A    between atoms: _471  and  _472
REMARK  176  A    between atoms: _472  and  _473
REMARK  177  A    between atoms: _473  and  _474
REMARK  178  A    between atoms: _483  and  _485
REMARK  179  A    between atoms: _485  and  _486
REMARK  180  A    between atoms: _485  and  _488
REMARK  181  A    between atoms: _488  and  _489
REMARK  182  A    between atoms: _489  and  _490
REMARK  183  A    between atoms: _493  and  _495
REMARK  184  A    between atoms: _495  and  _496
REMARK  185  A    between atoms: _498  and  _500
REMARK  186  A    between atoms: _500  and  _501
REMARK  187  A    between atoms: _500  and  _503
REMARK  188  A    between atoms: _503  and  _504
REMARK  189  A    between atoms: _510  and  _511
REMARK  190  A    between atoms: _516  and  _518
REMARK  191  A    between atoms: _518  and  _519
REMARK  192  A    between atoms: _521  and  _523
REMARK  193  A    between atoms: _523  and  _524
REMARK  194  A    between atoms: _523  and  _526
REMARK  195  A    between atoms: _526  and  _527
REMARK  196  A    between atoms: _533  and  _535
REMARK  197  A    between atoms: _535  and  _536
REMARK  198  A    between atoms: _535  and  _538
REMARK  199  A    between atoms: _538  and  _539
REMARK  200  A    between atoms: _544  and  _546
REMARK  201  A    between atoms: _546  and  _547
REMARK  202  A    between atoms: _546  and  _549
REMARK  203  A    between atoms: _549  and  _550
REMARK  204  A    between atoms: _550  and  _551
REMARK  205  A    between atoms: _551  and  _552
REMARK  206  A    between atoms: _552  and  ZN_793
REMARK  207  A    between atoms: _554  and  _556
REMARK  208  A    between atoms: _556  and  _557
REMARK  209  A    between atoms: _560  and  _562
REMARK  210  A    between atoms: _562  and  _563
REMARK  211  A    between atoms: _562  and  _565
REMARK  212  A    between atoms: _565  and  _566
REMARK  213  A    between atoms: _569  and  _571
REMARK  214  A    between atoms: _571  and  _572
REMARK  215  A    between atoms: _575  and  _577
REMARK  216  A    between atoms: _577  and  _578
REMARK  217  A    between atoms: _577  and  _580
REMARK  218  A    between atoms: _580  and  _581
REMARK  219  A    between atoms: _584  and  _586
REMARK  220  A    between atoms: _586  and  _587
REMARK  221  A    between atoms: _586  and  _589
REMARK  222  A    between atoms: _589  and  _590
REMARK  223  A    between atoms: _590  and  _591
REMARK  224  A    between atoms: _591  and  _592
REMARK  225  A    between atoms: _592  and  _593
REMARK  226  A    between atoms: _597  and  _599
REMARK  227  A    between atoms: _599  and  _600
REMARK  228  A    between atoms: _599  and  _602
REMARK  229  A    between atoms: _602  and  _603
REMARK  230  A    between atoms: _609  and  _611
REMARK  231  A    between atoms: _611  and  _612
REMARK  232  A    between atoms: _611  and  _614
REMARK  233  A    between atoms: _614  and  _615
REMARK  234  A    between atoms: _621  and  _623
REMARK  235  A    between atoms: _623  and  _624
REMARK  236  A    between atoms: _623  and  _626
REMARK  237  A    between atoms: _626  and  _627
REMARK  238  A    between atoms: _629  and  _631
REMARK  239  A    between atoms: _631  and  _632
REMARK  240  A    between atoms: _631  and  _634
REMARK  241  A    between atoms: _637  and  _639
REMARK  242  A    between atoms: _639  and  _640
REMARK  243  A    between atoms: _639  and  _642
REMARK  244  A    between atoms: _642  and  _643
REMARK  245  A    between atoms: _643  and  _644
REMARK  246  A    between atoms: _644  and  _645
REMARK  247  A    between atoms: _645  and  _646
REMARK  248  A    between atoms: _650  and  _652
REMARK  249  A    between atoms: _652  and  _653
REMARK  250  A    between atoms: _652  and  _655
REMARK  251  A    between atoms: _655  and  _656
REMARK  252  A    between atoms: _662  and  _664
REMARK  253  A    between atoms: _664  and  _665
REMARK  254  A    between atoms: _664  and  _667
REMARK  255  A    between atoms: _667  and  _668
REMARK  256  A    between atoms: _673  and  _675
REMARK  257  A    between atoms: _675  and  _676
REMARK  258  A    between atoms: _675  and  _678
REMARK  259  A    between atoms: _678  and  _679
REMARK  260  A    between atoms: _681  and  _683
REMARK  261  A    between atoms: _683  and  _684
REMARK  262  A    between atoms: _683  and  _686
REMARK  263  A    between atoms: _686  and  _687
REMARK  264  A    between atoms: _689  and  _691
REMARK  265  A    between atoms: _691  and  _692
REMARK  266  A    between atoms: _691  and  _694
REMARK  267  A    between atoms: _698  and  _699
REMARK  268  A    between atoms: _704  and  _706
REMARK  269  A    between atoms: _706  and  _707
REMARK  270  A    between atoms: _706  and  _709
REMARK  271  A    between atoms: _709  and  _710
REMARK  272  A    between atoms: _715  and  _716
REMARK  273  A    between atoms: _718  and  _720
REMARK  274  A    between atoms: _720  and  _721
REMARK  275  A    between atoms: _720  and  _723
REMARK  276  A    between atoms: _723  and  _724
REMARK  277  A    between atoms: _724  and  _725
REMARK  278  A    between atoms: _725  and  _726
REMARK  279  A    between atoms: _735  and  _737
REMARK  280  A    between atoms: _737  and  _738
REMARK  281  A    between atoms: _737  and  _740
REMARK  282  A    between atoms: _740  and  _741
REMARK  283  A    between atoms: _746  and  _747
REMARK  284  A    between atoms: _749  and  _751
REMARK  285  A    between atoms: _751  and  _752
REMARK  286  A    between atoms: _751  and  _754
REMARK  287  A    between atoms: _754  and  _755
REMARK  288  A    between atoms: _761  and  _763
REMARK  289  A    between atoms: _763  and  _764
REMARK  290  A    between atoms: _763  and  _766
REMARK  291  A    between atoms: _766  and  _767
REMARK  292  A    between atoms: _769  and  _771
REMARK  293  A    between atoms: _771  and  _772
REMARK  294  A    between atoms: _771  and  _774
REMARK  295  A    between atoms: _774  and  _775
REMARK  296  A    between atoms: _781  and  _783
REMARK  297  A    between atoms: _783  and  _784
REMARK  298  A    between atoms: _783  and  _786
REMARK  299  A    between atoms: _786  and  _787
REMARK  300  A    between atoms: _787  and  _788
REMARK                            x       y       z     vdW  Elec       q    Type
REMARK                         _______ _______ _______ _____ _____    ______ ____
ROOT
ATOM      1  O   HOH     1      11.872   6.844  -9.539  0.00  0.00    +0.000 OA
ENDROOT
TORSDOF 0
REMARK  Name = ../refined-set-2016/4ca5/4ca5_pocket.pdb
REMARK  300 active torsions:
REMARK  status: ('A' for Active; 'I' for Inactive)
REMARK    1  A    between atoms: _1  and  _3
REMARK    2  A    between atoms: _3  and  _4
REMARK    3  A    between atoms: _3  and  _6
REMARK    4  A    between atoms: _6  and  _7
REMARK    5  A    between atoms: _12  and  _14
REMARK    6  A    between atoms: _14  and  _15
REMARK    7  A    between atoms: _14  and  _17
REMARK    8  A    between atoms: _17  and  _18
REMARK    9  A    between atoms: _23  and  _25
REMARK   10  A    between atoms: _25  and  _26
REMARK   11  A    between atoms: _25  and  _28
REMARK   12  A    between atoms: _28  and  _29
REMARK   13  A    between atoms: _29  and  _30
REMARK   14  A    between atoms: _33  and  _35
REMARK   15  A    between atoms: _35  and  _36
REMARK   16  A    between atoms: _35  and  _38
REMARK   17  A    between atoms: _38  and  _39
REMARK   18  A    between atoms: _44  and  _45
REMARK   19  A    between atoms: _47  and  _49
REMARK   20  A    between atoms: _49  and  _50
REMARK   21  A    between atoms: _49  and  _52
REMARK   22  A    between atoms: _52  and  _53
REMARK   23  A    between atoms: _53  and  _54
REMARK   24  A    between atoms: _57  and  _59
REMARK   25  A    between atoms: _59  and  _60
REMARK   26  A    between atoms: _59  and  _62
REMARK   27  A    between atoms: _62  and  _63
REMARK   28  A    between atoms: _66  and  _68
REMARK   29  A    between atoms: _68  and  _69
REMARK   30  A    between atoms: _71  and  _73
REMARK   31  A    between atoms: _73  and  _74
REMARK   32  A    between atoms: _73  and  _76
REMARK   33  A    between atoms: _76  and  _77
REMARK   34  A    between atoms: _82  and  _84
REMARK   35  A    between atoms: _84  and  _85
REMARK   36  A    between atoms: _84  and  _87
REMARK   37  A    between atoms: _87  and  _88
REMARK   38  A    between atoms: _88  and  _89
REMARK   39  A    between atoms: _91  and  _93
REMARK   40  A    between atoms: _93  and  _94
REMARK   41  A    between atoms: _93  and  _96
REMARK   42  A    between atoms: _96  and  _97
REMARK   43  A    between atoms: _107  and  _109
REMARK   44  A    between atoms: _109  and  _110
REMARK   45  A    between atoms: _109  and  _112
REMARK   46  A    between atoms: _112  and  _113
REMARK   47  A    between atoms: _113  and  _114
REMARK   48  A    between atoms: _119  and  _121
REMARK   49  A    between atoms: _121  and  _122
REMARK   50  A    between atoms: _121  and  _124
REMARK   51  A    between atoms: _124  and  _125
REMARK   52  A    between atoms: _128  and  _130
REMARK   53  A    between atoms: _130  and  _131
REMARK   54  A    between atoms: _130  and  _133
REMARK   55  A    between atoms: _133  and  _134
REMARK   56  A    between atoms: _144  and  _146
REMARK   57  A    between atoms: _146  and  _147
REMARK   58  A    between atoms: _146  and  _149
REMARK   59  A    between atoms: _149  and  _150
REMARK   60  A    between atoms: _152  and  _154
REMARK   61  A    between atoms: _154  and  _155
REMARK   62  A    between atoms: _154  and  _157
REMARK   63  A    between atoms: _157  and  _158
REMARK   64  A    between atoms: _163  and  _165
REMARK   65  A    between atoms: _165  and  _166
REMARK   66  A    between atoms: _165  and  _168
REMARK   67  A    between atoms: _171  and  _173
REMARK   68  A    between atoms: _173  and  _174
REMARK   69  A    between atoms: _173  and  _176
REMARK   70  A    between atoms: _178  and  _180
REMARK   71  A    between atoms: _180  and  _181
REMARK   72  A    between atoms: _180  and  _183
REMARK   73  A    between atoms: _183  and  _184
REMARK   74  A    between atoms: _189  and  _191
REMARK   75  A    between atoms: _191  and  _192
REMARK   76  A    between atoms: _195  and  _197
REMARK   77  A    between atoms: _197  and  _198
REMARK   78  A    between atoms: _197  and  _200
REMARK   79  A    between atoms: _200  and  _201
REMARK   80  A    between atoms: _203  and  _205
REMARK   81  A    between atoms: _205  and  _206
REMARK   82  A    between atoms: _209  and  _211
REMARK   83  A    between atoms: _211  and  _212
REMARK   84  A    between atoms: _211  and  _214
REMARK   85  A    between atoms: _214  and  _215
REMARK   86  A    between atoms: _225  and  _227
REMARK   87  A    between atoms: _227  and  _228
REMARK   88  A    between atoms: _227  and  _230
REMARK   89  A    between atoms: _230  and  _231
REMARK   90  A    between atoms: _234  and  _236
REMARK   91  A    between atoms: _236  and  _237
REMARK   92  A    between atoms: _236  and  _239
REMARK   93  A    between atoms: _239  and  _240
REMARK   94  A    between atoms: _245  and  _246
REMARK   95  A    between atoms: _248  and  _250
REMARK   96  A    between atoms: _250  and  _251
REMARK   97  A    between atoms: _250  and  _253
REMARK   98  A    between atoms: _253  and  _254
REMARK   99  A    between atoms: _254  and  _255
REMARK  100  A    between atoms: _255  and  _256
REMARK  101  A    between atoms: _265  and  _267
REMARK  102  A    between atoms: _267  and  _268
REMARK  103  A    between atoms: _267  and  _270
REMARK  104  A    between atoms: _270  and  _271
REMARK  105  A    between atoms: _274  and  _276
REMARK  106  A    between atoms: _276  and  _277
REMARK  107  A    between atoms: _276  and  _279
REMARK  108  A    between atoms: _279  and  _280
REMARK  109  A    between atoms: _280  and  _281
REMARK  110  A    between atoms: _281  and  _282
REMARK  111  A    between atoms: _282  and  _283
REMARK  112  A    between atoms: _287  and  _289
REMARK  113  A    between atoms: _289  and  _290
REMARK  114  A    between atoms: _289  and  _292
REMARK  115  A    between atoms: _292  and  _293
REMARK  116  A    between atoms: _293  and  _294
REMARK  117  A    between atoms: _299  and  _301
REMARK  118  A    between atoms: _301  and  _302
REMARK  119  A    between atoms: _301  and  _304
REMARK  120  A    between atoms: _304  and  _305
REMARK  121  A    between atoms: _310  and  _312
REMARK  122  A    between atoms: _312  and  _313
REMARK  123  A    between atoms: _312  and  _315
REMARK  124  A    between atoms: _315  and  _316
REMARK  125  A    between atoms: _319  and  _321
REMARK  126  A    between atoms: _321  and  _322
REMARK  127  A    between atoms: _321  and  _324
REMARK  128  A    between atoms: _324  and  _325
REMARK  129  A    between atoms: _325  and  _326
REMARK  130  A    between atoms: _329  and  _331
REMARK  131  A    between atoms: _331  and  _332
REMARK  132  A    between atoms: _331  and  _334
REMARK  133  A    between atoms: _334  and  _335
REMARK  134  A    between atoms: _338  and  _340
REMARK  135  A    between atoms: _340  and  _341
REMARK  136  A    between atoms: _340  and  _343
REMARK  137  A    between atoms: _346  and  _348
REMARK  138  A    between atoms: _348  and  _349
REMARK  139  A    between atoms: _348  and  _351
REMARK  140  A    between atoms: _354  and  _356
REMARK  141  A    between atoms: _356  and  _357
REMARK  142  A    between atoms: _360  and  _362
REMARK  143  A    between atoms: _362  and  _363
REMARK  144  A    between atoms: _362  and  _365
REMARK  145  A    between atoms: _365  and  _366
REMARK  146  A    between atoms: _371  and  _373
REMARK  147  A    between atoms: _384  and  _387
REMARK  148  A    between atoms: _387  and  _388
REMARK  149  A    between atoms: _388  and  _389
REMARK  150  A    between atoms: _394  and  _397
REMARK  151  A    between atoms: _397  and  _398
REMARK  152  A    between atoms: _398  and  _399
REMARK  153  A    between atoms: _408  and  _409
REMARK  154  A    between atoms: _417  and  _419
REMARK  155  A    between atoms: _419  and  _420
REMARK  156  A    between atoms: _419  and  _422
REMARK  157  A    between atoms: _422  and  _423
REMARK  158  A    between atoms: _426  and  _428
REMARK  159  A    between atoms: _428  and  _429
REMARK  160  A    between atoms: _428  and  _431
REMARK  161  A    between atoms: _431  and  _432
REMARK  162  A    between atoms: _437  and  _438
REMARK  163  A    between atoms: _440  and  _442
REMARK  164  A    between atoms: _442  and  _443
REMARK  165  A    between atoms: _442  and  _445
REMARK  166  A    between atoms: _445  and  _446
REMARK  167  A    between atoms: _452  and  _454
REMARK  168  A    between atoms: _454  and  _455
REMARK  169  A    between atoms: _454  and  _457
REMARK  170  A    between atoms: _457  and  _458
REMARK  171  A    between atoms: _463  and  _464
REMARK  172  A    between atoms: _466  and  _468
REMARK  173  A    between atoms: _468  and  _469
REMARK  174  A    between atoms: _468  and  _471
REMARK  175  A    between atoms: _471  and  _472
REMARK  176  A    between atoms: _472  and  _473
REMARK  177  A    between atoms: _473  and  _474
REMARK  178  A    between atoms: _483  and  _485
REMARK  179  A    between atoms: _485  and  _486
REMARK  180  A    between atoms: _485  and  _488
REMARK  181  A    between atoms: _488  and  _489
REMARK  182  A    between atoms: _489  and  _490
REMARK  183  A    between atoms: _493  and  _495
REMARK  184  A    between atoms: _495  and  _496
REMARK  185  A    between atoms: _498  and  _500
REMARK  186  A    between atoms: _500  and  _501
REMARK  187  A    between atoms: _500  and  _503
REMARK  188  A    between atoms: _503  and  _504
REMARK  189  A    between atoms: _510  and  _511
REMARK  190  A    between atoms: _516  and  _518
REMARK  191  A    between atoms: _518  and  _519
REMARK  192  A    between atoms: _521  and  _523
REMARK  193  A    between atoms: _523  and  _524
REMARK  194  A    between atoms: _523  and  _526
REMARK  195  A    between atoms: _526  and  _527
REMARK  196  A    between atoms: _533  and  _535
REMARK  197  A    between atoms: _535  and  _536
REMARK  198  A    between atoms: _535  and  _538
REMARK  199  A    between atoms: _538  and  _539
REMARK  200  A    between atoms: _544  and  _546
REMARK  201  A    between atoms: _546  and  _547
REMARK  202  A    between atoms: _546  and  _549
REMARK  203  A    between atoms: _549  and  _550
REMARK  204  A    between atoms: _550  and  _551
REMARK  205  A    between atoms: _551  and  _552
REMARK  206  A    between atoms: _552  and  ZN_793
REMARK  207  A    between atoms: _554  and  _556
REMARK  208  A    between atoms: _556  and  _557
REMARK  209  A    between atoms: _560  and  _562
REMARK  210  A    between atoms: _562  and  _563
REMARK  211  A    between atoms: _562  and  _565
REMARK  212  A    between atoms: _565  and  _566
REMARK  213  A    between atoms: _569  and  _571
REMARK  214  A    between atoms: _571  and  _572
REMARK  215  A    between atoms: _575  and  _577
REMARK  216  A    between atoms: _577  and  _578
REMARK  217  A    between atoms: _577  and  _580
REMARK  218  A    between atoms: _580  and  _581
REMARK  219  A    between atoms: _584  and  _586
REMARK  220  A    between atoms: _586  and  _587
REMARK  221  A    between atoms: _586  and  _589
REMARK  222  A    between atoms: _589  and  _590
REMARK  223  A    between atoms: _590  and  _591
REMARK  224  A    between atoms: _591  and  _592
REMARK  225  A    between atoms: _592  and  _593
REMARK  226  A    between atoms: _597  and  _599
REMARK  227  A    between atoms: _599  and  _600
REMARK  228  A    between atoms: _599  and  _602
REMARK  229  A    between atoms: _602  and  _603
REMARK  230  A    between atoms: _609  and  _611
REMARK  231  A    between atoms: _611  and  _612
REMARK  232  A    between atoms: _611  and  _614
REMARK  233  A    between atoms: _614  and  _615
REMARK  234  A    between atoms: _621  and  _623
REMARK  235  A    between atoms: _623  and  _624
REMARK  236  A    between atoms: _623  and  _626
REMARK  237  A    between atoms: _626  and  _627
REMARK  238  A    between atoms: _629  and  _631
REMARK  239  A    between atoms: _631  and  _632
REMARK  240  A    between atoms: _631  and  _634
REMARK  241  A    between atoms: _637  and  _639
REMARK  242  A    between atoms: _639  and  _640
REMARK  243  A    between atoms: _639  and  _642
REMARK  244  A    between atoms: _642  and  _643
REMARK  245  A    between atoms: _643  and  _644
REMARK  246  A    between atoms: _644  and  _645
REMARK  247  A    between atoms: _645  and  _646
REMARK  248  A    between atoms: _650  and  _652
REMARK  249  A    between atoms: _652  and  _653
REMARK  250  A    between atoms: _652  and  _655
REMARK  251  A    between atoms: _655  and  _656
REMARK  252  A    between atoms: _662  and  _664
REMARK  253  A    between atoms: _664  and  _665
REMARK  254  A    between atoms: _664  and  _667
REMARK  255  A    between atoms: _667  and  _668
REMARK  256  A    between atoms: _673  and  _675
REMARK  257  A    between atoms: _675  and  _676
REMARK  258  A    between atoms: _675  and  _678
REMARK  259  A    between atoms: _678  and  _679
REMARK  260  A    between atoms: _681  and  _683
REMARK  261  A    between atoms: _683  and  _684
REMARK  262  A    between atoms: _683  and  _686
REMARK  263  A    between atoms: _686  and  _687
REMARK  264  A    between atoms: _689  and  _691
REMARK  265  A    between atoms: _691  and  _692
REMARK  266  A    between atoms: _691  and  _694
REMARK  267  A    between atoms: _698  and  _699
REMARK  268  A    between atoms: _704  and  _706
REMARK  269  A    between atoms: _706  and  _707
REMARK  270  A    between atoms: _706  and  _709
REMARK  271  A    between atoms: _709  and  _710
REMARK  272  A    between atoms: _715  and  _716
REMARK  273  A    between atoms: _718  and  _720
REMARK  274  A    between atoms: _720  and  _721
REMARK  275  A    between atoms: _720  and  _723
REMARK  276  A    between atoms: _723  and  _724
REMARK  277  A    between atoms: _724  and  _725
REMARK  278  A    between atoms: _725  and  _726
REMARK  279  A    between atoms: _735  and  _737
REMARK  280  A    between atoms: _737  and  _738
REMARK  281  A    between atoms: _737  and  _740
REMARK  282  A    between atoms: _740  and  _741
REMARK  283  A    between atoms: _746  and  _747
REMARK  284  A    between atoms: _749  and  _751
REMARK  285  A    between atoms: _751  and  _752
REMARK  286  A    between atoms: _751  and  _754
REMARK  287  A    between atoms: _754  and  _755
REMARK  288  A    between atoms: _761  and  _763
REMARK  289  A    between atoms: _763  and  _764
REMARK  290  A    between atoms: _763  and  _766
REMARK  291  A    between atoms: _766  and  _767
REMARK  292  A    between atoms: _769  and  _771
REMARK  293  A    between atoms: _771  and  _772
REMARK  294  A    between atoms: _771  and  _774
REMARK  295  A    between atoms: _774  and  _775
REMARK  296  A    between atoms: _781  and  _783
REMARK  297  A    between atoms: _783  and  _784
REMARK  298  A    between atoms: _783  and  _786
REMARK  299  A    between atoms: _786  and  _787
REMARK  300  A    between atoms: _787  and  _788
REMARK                            x       y       z     vdW  Elec       q    Type
REMARK                         _______ _______ _______ _____ _____    ______ ____
ROOT
ATOM      1  O   HOH     1      13.678   4.700 -17.394  0.00  0.00    +0.000 OA
ENDROOT
TORSDOF 0
REMARK  Name = ../refined-set-2016/4ca5/4ca5_pocket.pdb
REMARK  300 active torsions:
REMARK  status: ('A' for Active; 'I' for Inactive)
REMARK    1  A    between atoms: _1  and  _3
REMARK    2  A    between atoms: _3  and  _4
REMARK    3  A    between atoms: _3  and  _6
REMARK    4  A    between atoms: _6  and  _7
REMARK    5  A    between atoms: _12  and  _14
REMARK    6  A    between atoms: _14  and  _15
REMARK    7  A    between atoms: _14  and  _17
REMARK    8  A    between atoms: _17  and  _18
REMARK    9  A    between atoms: _23  and  _25
REMARK   10  A    between atoms: _25  and  _26
REMARK   11  A    between atoms: _25  and  _28
REMARK   12  A    between atoms: _28  and  _29
REMARK   13  A    between atoms: _29  and  _30
REMARK   14  A    between atoms: _33  and  _35
REMARK   15  A    between atoms: _35  and  _36
REMARK   16  A    between atoms: _35  and  _38
REMARK   17  A    between atoms: _38  and  _39
REMARK   18  A    between atoms: _44  and  _45
REMARK   19  A    between atoms: _47  and  _49
REMARK   20  A    between atoms: _49  and  _50
REMARK   21  A    between atoms: _49  and  _52
REMARK   22  A    between atoms: _52  and  _53
REMARK   23  A    between atoms: _53  and  _54
REMARK   24  A    between atoms: _57  and  _59
REMARK   25  A    between atoms: _59  and  _60
REMARK   26  A    between atoms: _59  and  _62
REMARK   27  A    between atoms: _62  and  _63
REMARK   28  A    between atoms: _66  and  _68
REMARK   29  A    between atoms: _68  and  _69
REMARK   30  A    between atoms: _71  and  _73
REMARK   31  A    between atoms: _73  and  _74
REMARK   32  A    between atoms: _73  and  _76
REMARK   33  A    between atoms: _76  and  _77
REMARK   34  A    between atoms: _82  and  _84
REMARK   35  A    between atoms: _84  and  _85
REMARK   36  A    between atoms: _84  and  _87
REMARK   37  A    between atoms: _87  and  _88
REMARK   38  A    between atoms: _88  and  _89
REMARK   39  A    between atoms: _91  and  _93
REMARK   40  A    between atoms: _93  and  _94
REMARK   41  A    between atoms: _93  and  _96
REMARK   42  A    between atoms: _96  and  _97
REMARK   43  A    between atoms: _107  and  _109
REMARK   44  A    between atoms: _109  and  _110
REMARK   45  A    between atoms: _109  and  _112
REMARK   46  A    between atoms: _112  and  _113
REMARK   47  A    between atoms: _113  and  _114
REMARK   48  A    between atoms: _119  and  _121
REMARK   49  A    between atoms: _121  and  _122
REMARK   50  A    between atoms: _121  and  _124
REMARK   51  A    between atoms: _124  and  _125
REMARK   52  A    between atoms: _128  and  _130
REMARK   53  A    between atoms: _130  and  _131
REMARK   54  A    between atoms: _130  and  _133
REMARK   55  A    between atoms: _133  and  _134
REMARK   56  A    between atoms: _144  and  _146
REMARK   57  A    between atoms: _146  and  _147
REMARK   58  A    between atoms: _146  and  _149
REMARK   59  A    between atoms: _149  and  _150
REMARK   60  A    between atoms: _152  and  _154
REMARK   61  A    between atoms: _154  and  _155
REMARK   62  A    between atoms: _154  and  _157
REMARK   63  A    between atoms: _157  and  _158
REMARK   64  A    between atoms: _163  and  _165
REMARK   65  A    between atoms: _165  and  _166
REMARK   66  A    between atoms: _165  and  _168
REMARK   67  A    between atoms: _171  and  _173
REMARK   68  A    between atoms: _173  and  _174
REMARK   69  A    between atoms: _173  and  _176
REMARK   70  A    between atoms: _178  and  _180
REMARK   71  A    between atoms: _180  and  _181
REMARK   72  A    between atoms: _180  and  _183
REMARK   73  A    between atoms: _183  and  _184
REMARK   74  A    between atoms: _189  and  _191
REMARK   75  A    between atoms: _191  and  _192
REMARK   76  A    between atoms: _195  and  _197
REMARK   77  A    between atoms: _197  and  _198
REMARK   78  A    between atoms: _197  and  _200
REMARK   79  A    between atoms: _200  and  _201
REMARK   80  A    between atoms: _203  and  _205
REMARK   81  A    between atoms: _205  and  _206
REMARK   82  A    between atoms: _209  and  _211
REMARK   83  A    between atoms: _211  and  _212
REMARK   84  A    between atoms: _211  and  _214
REMARK   85  A    between atoms: _214  and  _215
REMARK   86  A    between atoms: _225  and  _227
REMARK   87  A    between atoms: _227  and  _228
REMARK   88  A    between atoms: _227  and  _230
REMARK   89  A    between atoms: _230  and  _231
REMARK   90  A    between atoms: _234  and  _236
REMARK   91  A    between atoms: _236  and  _237
REMARK   92  A    between atoms: _236  and  _239
REMARK   93  A    between atoms: _239  and  _240
REMARK   94  A    between atoms: _245  and  _246
REMARK   95  A    between atoms: _248  and  _250
REMARK   96  A    between atoms: _250  and  _251
REMARK   97  A    between atoms: _250  and  _253
REMARK   98  A    between atoms: _253  and  _254
REMARK   99  A    between atoms: _254  and  _255
REMARK  100  A    between atoms: _255  and  _256
REMARK  101  A    between atoms: _265  and  _267
REMARK  102  A    between atoms: _267  and  _268
REMARK  103  A    between atoms: _267  and  _270
REMARK  104  A    between atoms: _270  and  _271
REMARK  105  A    between atoms: _274  and  _276
REMARK  106  A    between atoms: _276  and  _277
REMARK  107  A    between atoms: _276  and  _279
REMARK  108  A    between atoms: _279  and  _280
REMARK  109  A    between atoms: _280  and  _281
REMARK  110  A    between atoms: _281  and  _282
REMARK  111  A    between atoms: _282  and  _283
REMARK  112  A    between atoms: _287  and  _289
REMARK  113  A    between atoms: _289  and  _290
REMARK  114  A    between atoms: _289  and  _292
REMARK  115  A    between atoms: _292  and  _293
REMARK  116  A    between atoms: _293  and  _294
REMARK  117  A    between atoms: _299  and  _301
REMARK  118  A    between atoms: _301  and  _302
REMARK  119  A    between atoms: _301  and  _304
REMARK  120  A    between atoms: _304  and  _305
REMARK  121  A    between atoms: _310  and  _312
REMARK  122  A    between atoms: _312  and  _313
REMARK  123  A    between atoms: _312  and  _315
REMARK  124  A    between atoms: _315  and  _316
REMARK  125  A    between atoms: _319  and  _321
REMARK  126  A    between atoms: _321  and  _322
REMARK  127  A    between atoms: _321  and  _324
REMARK  128  A    between atoms: _324  and  _325
REMARK  129  A    between atoms: _325  and  _326
REMARK  130  A    between atoms: _329  and  _331
REMARK  131  A    between atoms: _331  and  _332
REMARK  132  A    between atoms: _331  and  _334
REMARK  133  A    between atoms: _334  and  _335
REMARK  134  A    between atoms: _338  and  _340
REMARK  135  A    between atoms: _340  and  _341
REMARK  136  A    between atoms: _340  and  _343
REMARK  137  A    between atoms: _346  and  _348
REMARK  138  A    between atoms: _348  and  _349
REMARK  139  A    between atoms: _348  and  _351
REMARK  140  A    between atoms: _354  and  _356
REMARK  141  A    between atoms: _356  and  _357
REMARK  142  A    between atoms: _360  and  _362
REMARK  143  A    between atoms: _362  and  _363
REMARK  144  A    between atoms: _362  and  _365
REMARK  145  A    between atoms: _365  and  _366
REMARK  146  A    between atoms: _371  and  _373
REMARK  147  A    between atoms: _384  and  _387
REMARK  148  A    between atoms: _387  and  _388
REMARK  149  A    between atoms: _388  and  _389
REMARK  150  A    between atoms: _394  and  _397
REMARK  151  A    between atoms: _397  and  _398
REMARK  152  A    between atoms: _398  and  _399
REMARK  153  A    between atoms: _408  and  _409
REMARK  154  A    between atoms: _417  and  _419
REMARK  155  A    between atoms: _419  and  _420
REMARK  156  A    between atoms: _419  and  _422
REMARK  157  A    between atoms: _422  and  _423
REMARK  158  A    between atoms: _426  and  _428
REMARK  159  A    between atoms: _428  and  _429
REMARK  160  A    between atoms: _428  and  _431
REMARK  161  A    between atoms: _431  and  _432
REMARK  162  A    between atoms: _437  and  _438
REMARK  163  A    between atoms: _440  and  _442
REMARK  164  A    between atoms: _442  and  _443
REMARK  165  A    between atoms: _442  and  _445
REMARK  166  A    between atoms: _445  and  _446
REMARK  167  A    between atoms: _452  and  _454
REMARK  168  A    between atoms: _454  and  _455
REMARK  169  A    between atoms: _454  and  _457
REMARK  170  A    between atoms: _457  and  _458
REMARK  171  A    between atoms: _463  and  _464
REMARK  172  A    between atoms: _466  and  _468
REMARK  173  A    between atoms: _468  and  _469
REMARK  174  A    between atoms: _468  and  _471
REMARK  175  A    between atoms: _471  and  _472
REMARK  176  A    between atoms: _472  and  _473
REMARK  177  A    between atoms: _473  and  _474
REMARK  178  A    between atoms: _483  and  _485
REMARK  179  A    between atoms: _485  and  _486
REMARK  180  A    between atoms: _485  and  _488
REMARK  181  A    between atoms: _488  and  _489
REMARK  182  A    between atoms: _489  and  _490
REMARK  183  A    between atoms: _493  and  _495
REMARK  184  A    between atoms: _495  and  _496
REMARK  185  A    between atoms: _498  and  _500
REMARK  186  A    between atoms: _500  and  _501
REMARK  187  A    between atoms: _500  and  _503
REMARK  188  A    between atoms: _503  and  _504
REMARK  189  A    between atoms: _510  and  _511
REMARK  190  A    between atoms: _516  and  _518
REMARK  191  A    between atoms: _518  and  _519
REMARK  192  A    between atoms: _521  and  _523
REMARK  193  A    between atoms: _523  and  _524
REMARK  194  A    between atoms: _523  and  _526
REMARK  195  A    between atoms: _526  and  _527
REMARK  196  A    between atoms: _533  and  _535
REMARK  197  A    between atoms: _535  and  _536
REMARK  198  A    between atoms: _535  and  _538
REMARK  199  A    between atoms: _538  and  _539
REMARK  200  A    between atoms: _544  and  _546
REMARK  201  A    between atoms: _546  and  _547
REMARK  202  A    between atoms: _546  and  _549
REMARK  203  A    between atoms: _549  and  _550
REMARK  204  A    between atoms: _550  and  _551
REMARK  205  A    between atoms: _551  and  _552
REMARK  206  A    between atoms: _552  and  ZN_793
REMARK  207  A    between atoms: _554  and  _556
REMARK  208  A    between atoms: _556  and  _557
REMARK  209  A    between atoms: _560  and  _562
REMARK  210  A    between atoms: _562  and  _563
REMARK  211  A    between atoms: _562  and  _565
REMARK  212  A    between atoms: _565  and  _566
REMARK  213  A    between atoms: _569  and  _571
REMARK  214  A    between atoms: _571  and  _572
REMARK  215  A    between atoms: _575  and  _577
REMARK  216  A    between atoms: _577  and  _578
REMARK  217  A    between atoms: _577  and  _580
REMARK  218  A    between atoms: _580  and  _581
REMARK  219  A    between atoms: _584  and  _586
REMARK  220  A    between atoms: _586  and  _587
REMARK  221  A    between atoms: _586  and  _589
REMARK  222  A    between atoms: _589  and  _590
REMARK  223  A    between atoms: _590  and  _591
REMARK  224  A    between atoms: _591  and  _592
REMARK  225  A    between atoms: _592  and  _593
REMARK  226  A    between atoms: _597  and  _599
REMARK  227  A    between atoms: _599  and  _600
REMARK  228  A    between atoms: _599  and  _602
REMARK  229  A    between atoms: _602  and  _603
REMARK  230  A    between atoms: _609  and  _611
REMARK  231  A    between atoms: _611  and  _612
REMARK  232  A    between atoms: _611  and  _614
REMARK  233  A    between atoms: _614  and  _615
REMARK  234  A    between atoms: _621  and  _623
REMARK  235  A    between atoms: _623  and  _624
REMARK  236  A    between atoms: _623  and  _626
REMARK  237  A    between atoms: _626  and  _627
REMARK  238  A    between atoms: _629  and  _631
REMARK  239  A    between atoms: _631  and  _632
REMARK  240  A    between atoms: _631  and  _634
REMARK  241  A    between atoms: _637  and  _639
REMARK  242  A    between atoms: _639  and  _640
REMARK  243  A    between atoms: _639  and  _642
REMARK  244  A    between atoms: _642  and  _643
REMARK  245  A    between atoms: _643  and  _644
REMARK  246  A    between atoms: _644  and  _645
REMARK  247  A    between atoms: _645  and  _646
REMARK  248  A    between atoms: _650  and  _652
REMARK  249  A    between atoms: _652  and  _653
REMARK  250  A    between atoms: _652  and  _655
REMARK  251  A    between atoms: _655  and  _656
REMARK  252  A    between atoms: _662  and  _664
REMARK  253  A    between atoms: _664  and  _665
REMARK  254  A    between atoms: _664  and  _667
REMARK  255  A    between atoms: _667  and  _668
REMARK  256  A    between atoms: _673  and  _675
REMARK  257  A    between atoms: _675  and  _676
REMARK  258  A    between atoms: _675  and  _678
REMARK  259  A    between atoms: _678  and  _679
REMARK  260  A    between atoms: _681  and  _683
REMARK  261  A    between atoms: _683  and  _684
REMARK  262  A    between atoms: _683  and  _686
REMARK  263  A    between atoms: _686  and  _687
REMARK  264  A    between atoms: _689  and  _691
REMARK  265  A    between atoms: _691  and  _692
REMARK  266  A    between atoms: _691  and  _694
REMARK  267  A    between atoms: _698  and  _699
REMARK  268  A    between atoms: _704  and  _706
REMARK  269  A    between atoms: _706  and  _707
REMARK  270  A    between atoms: _706  and  _709
REMARK  271  A    between atoms: _709  and  _710
REMARK  272  A    between atoms: _715  and  _716
REMARK  273  A    between atoms: _718  and  _720
REMARK  274  A    between atoms: _720  and  _721
REMARK  275  A    between atoms: _720  and  _723
REMARK  276  A    between atoms: _723  and  _724
REMARK  277  A    between atoms: _724  and  _725
REMARK  278  A    between atoms: _725  and  _726
REMARK  279  A    between atoms: _735  and  _737
REMARK  280  A    between atoms: _737  and  _738
REMARK  281  A    between atoms: _737  and  _740
REMARK  282  A    between atoms: _740  and  _741
REMARK  283  A    between atoms: _746  and  _747
REMARK  284  A    between atoms: _749  and  _751
REMARK  285  A    between atoms: _751  and  _752
REMARK  286  A    between atoms: _751  and  _754
REMARK  287  A    between atoms: _754  and  _755
REMARK  288  A    between atoms: _761  and  _763
REMARK  289  A    between atoms: _763  and  _764
REMARK  290  A    between atoms: _763  and  _766
REMARK  291  A    between atoms: _766  and  _767
REMARK  292  A    between atoms: _769  and  _771
REMARK  293  A    between atoms: _771  and  _772
REMARK  294  A    between atoms: _771  and  _774
REMARK  295  A    between atoms: _774  and  _775
REMARK  296  A    between atoms: _781  and  _783
REMARK  297  A    between atoms: _783  and  _784
REMARK  298  A    between atoms: _783  and  _786
REMARK  299  A    between atoms: _786  and  _787
REMARK  300  A    between atoms: _787  and  _788
REMARK                            x       y       z     vdW  Elec       q    Type
REMARK                         _______ _______ _______ _____ _____    ______ ____
ROOT
ATOM      1  O   HOH     1      12.414   7.147 -18.019  0.00  0.00    +0.000 OA
ENDROOT
TORSDOF 0
REMARK  Name = ../refined-set-2016/4ca5/4ca5_pocket.pdb
REMARK  300 active torsions:
REMARK  status: ('A' for Active; 'I' for Inactive)
REMARK    1  A    between atoms: _1  and  _3
REMARK    2  A    between atoms: _3  and  _4
REMARK    3  A    between atoms: _3  and  _6
REMARK    4  A    between atoms: _6  and  _7
REMARK    5  A    between atoms: _12  and  _14
REMARK    6  A    between atoms: _14  and  _15
REMARK    7  A    between atoms: _14  and  _17
REMARK    8  A    between atoms: _17  and  _18
REMARK    9  A    between atoms: _23  and  _25
REMARK   10  A    between atoms: _25  and  _26
REMARK   11  A    between atoms: _25  and  _28
REMARK   12  A    between atoms: _28  and  _29
REMARK   13  A    between atoms: _29  and  _30
REMARK   14  A    between atoms: _33  and  _35
REMARK   15  A    between atoms: _35  and  _36
REMARK   16  A    between atoms: _35  and  _38
REMARK   17  A    between atoms: _38  and  _39
REMARK   18  A    between atoms: _44  and  _45
REMARK   19  A    between atoms: _47  and  _49
REMARK   20  A    between atoms: _49  and  _50
REMARK   21  A    between atoms: _49  and  _52
REMARK   22  A    between atoms: _52  and  _53
REMARK   23  A    between atoms: _53  and  _54
REMARK   24  A    between atoms: _57  and  _59
REMARK   25  A    between atoms: _59  and  _60
REMARK   26  A    between atoms: _59  and  _62
REMARK   27  A    between atoms: _62  and  _63
REMARK   28  A    between atoms: _66  and  _68
REMARK   29  A    between atoms: _68  and  _69
REMARK   30  A    between atoms: _71  and  _73
REMARK   31  A    between atoms: _73  and  _74
REMARK   32  A    between atoms: _73  and  _76
REMARK   33  A    between atoms: _76  and  _77
REMARK   34  A    between atoms: _82  and  _84
REMARK   35  A    between atoms: _84  and  _85
REMARK   36  A    between atoms: _84  and  _87
REMARK   37  A    between atoms: _87  and  _88
REMARK   38  A    between atoms: _88  and  _89
REMARK   39  A    between atoms: _91  and  _93
REMARK   40  A    between atoms: _93  and  _94
REMARK   41  A    between atoms: _93  and  _96
REMARK   42  A    between atoms: _96  and  _97
REMARK   43  A    between atoms: _107  and  _109
REMARK   44  A    between atoms: _109  and  _110
REMARK   45  A    between atoms: _109  and  _112
REMARK   46  A    between atoms: _112  and  _113
REMARK   47  A    between atoms: _113  and  _114
REMARK   48  A    between atoms: _119  and  _121
REMARK   49  A    between atoms: _121  and  _122
REMARK   50  A    between atoms: _121  and  _124
REMARK   51  A    between atoms: _124  and  _125
REMARK   52  A    between atoms: _128  and  _130
REMARK   53  A    between atoms: _130  and  _131
REMARK   54  A    between atoms: _130  and  _133
REMARK   55  A    between atoms: _133  and  _134
REMARK   56  A    between atoms: _144  and  _146
REMARK   57  A    between atoms: _146  and  _147
REMARK   58  A    between atoms: _146  and  _149
REMARK   59  A    between atoms: _149  and  _150
REMARK   60  A    between atoms: _152  and  _154
REMARK   61  A    between atoms: _154  and  _155
REMARK   62  A    between atoms: _154  and  _157
REMARK   63  A    between atoms: _157  and  _158
REMARK   64  A    between atoms: _163  and  _165
REMARK   65  A    between atoms: _165  and  _166
REMARK   66  A    between atoms: _165  and  _168
REMARK   67  A    between atoms: _171  and  _173
REMARK   68  A    between atoms: _173  and  _174
REMARK   69  A    between atoms: _173  and  _176
REMARK   70  A    between atoms: _178  and  _180
REMARK   71  A    between atoms: _180  and  _181
REMARK   72  A    between atoms: _180  and  _183
REMARK   73  A    between atoms: _183  and  _184
REMARK   74  A    between atoms: _189  and  _191
REMARK   75  A    between atoms: _191  and  _192
REMARK   76  A    between atoms: _195  and  _197
REMARK   77  A    between atoms: _197  and  _198
REMARK   78  A    between atoms: _197  and  _200
REMARK   79  A    between atoms: _200  and  _201
REMARK   80  A    between atoms: _203  and  _205
REMARK   81  A    between atoms: _205  and  _206
REMARK   82  A    between atoms: _209  and  _211
REMARK   83  A    between atoms: _211  and  _212
REMARK   84  A    between atoms: _211  and  _214
REMARK   85  A    between atoms: _214  and  _215
REMARK   86  A    between atoms: _225  and  _227
REMARK   87  A    between atoms: _227  and  _228
REMARK   88  A    between atoms: _227  and  _230
REMARK   89  A    between atoms: _230  and  _231
REMARK   90  A    between atoms: _234  and  _236
REMARK   91  A    between atoms: _236  and  _237
REMARK   92  A    between atoms: _236  and  _239
REMARK   93  A    between atoms: _239  and  _240
REMARK   94  A    between atoms: _245  and  _246
REMARK   95  A    between atoms: _248  and  _250
REMARK   96  A    between atoms: _250  and  _251
REMARK   97  A    between atoms: _250  and  _253
REMARK   98  A    between atoms: _253  and  _254
REMARK   99  A    between atoms: _254  and  _255
REMARK  100  A    between atoms: _255  and  _256
REMARK  101  A    between atoms: _265  and  _267
REMARK  102  A    between atoms: _267  and  _268
REMARK  103  A    between atoms: _267  and  _270
REMARK  104  A    between atoms: _270  and  _271
REMARK  105  A    between atoms: _274  and  _276
REMARK  106  A    between atoms: _276  and  _277
REMARK  107  A    between atoms: _276  and  _279
REMARK  108  A    between atoms: _279  and  _280
REMARK  109  A    between atoms: _280  and  _281
REMARK  110  A    between atoms: _281  and  _282
REMARK  111  A    between atoms: _282  and  _283
REMARK  112  A    between atoms: _287  and  _289
REMARK  113  A    between atoms: _289  and  _290
REMARK  114  A    between atoms: _289  and  _292
REMARK  115  A    between atoms: _292  and  _293
REMARK  116  A    between atoms: _293  and  _294
REMARK  117  A    between atoms: _299  and  _301
REMARK  118  A    between atoms: _301  and  _302
REMARK  119  A    between atoms: _301  and  _304
REMARK  120  A    between atoms: _304  and  _305
REMARK  121  A    between atoms: _310  and  _312
REMARK  122  A    between atoms: _312  and  _313
REMARK  123  A    between atoms: _312  and  _315
REMARK  124  A    between atoms: _315  and  _316
REMARK  125  A    between atoms: _319  and  _321
REMARK  126  A    between atoms: _321  and  _322
REMARK  127  A    between atoms: _321  and  _324
REMARK  128  A    between atoms: _324  and  _325
REMARK  129  A    between atoms: _325  and  _326
REMARK  130  A    between atoms: _329  and  _331
REMARK  131  A    between atoms: _331  and  _332
REMARK  132  A    between atoms: _331  and  _334
REMARK  133  A    between atoms: _334  and  _335
REMARK  134  A    between atoms: _338  and  _340
REMARK  135  A    between atoms: _340  and  _341
REMARK  136  A    between atoms: _340  and  _343
REMARK  137  A    between atoms: _346  and  _348
REMARK  138  A    between atoms: _348  and  _349
REMARK  139  A    between atoms: _348  and  _351
REMARK  140  A    between atoms: _354  and  _356
REMARK  141  A    between atoms: _356  and  _357
REMARK  142  A    between atoms: _360  and  _362
REMARK  143  A    between atoms: _362  and  _363
REMARK  144  A    between atoms: _362  and  _365
REMARK  145  A    between atoms: _365  and  _366
REMARK  146  A    between atoms: _371  and  _373
REMARK  147  A    between atoms: _384  and  _387
REMARK  148  A    between atoms: _387  and  _388
REMARK  149  A    between atoms: _388  and  _389
REMARK  150  A    between atoms: _394  and  _397
REMARK  151  A    between atoms: _397  and  _398
REMARK  152  A    between atoms: _398  and  _399
REMARK  153  A    between atoms: _408  and  _409
REMARK  154  A    between atoms: _417  and  _419
REMARK  155  A    between atoms: _419  and  _420
REMARK  156  A    between atoms: _419  and  _422
REMARK  157  A    between atoms: _422  and  _423
REMARK  158  A    between atoms: _426  and  _428
REMARK  159  A    between atoms: _428  and  _429
REMARK  160  A    between atoms: _428  and  _431
REMARK  161  A    between atoms: _431  and  _432
REMARK  162  A    between atoms: _437  and  _438
REMARK  163  A    between atoms: _440  and  _442
REMARK  164  A    between atoms: _442  and  _443
REMARK  165  A    between atoms: _442  and  _445
REMARK  166  A    between atoms: _445  and  _446
REMARK  167  A    between atoms: _452  and  _454
REMARK  168  A    between atoms: _454  and  _455
REMARK  169  A    between atoms: _454  and  _457
REMARK  170  A    between atoms: _457  and  _458
REMARK  171  A    between atoms: _463  and  _464
REMARK  172  A    between atoms: _466  and  _468
REMARK  173  A    between atoms: _468  and  _469
REMARK  174  A    between atoms: _468  and  _471
REMARK  175  A    between atoms: _471  and  _472
REMARK  176  A    between atoms: _472  and  _473
REMARK  177  A    between atoms: _473  and  _474
REMARK  178  A    between atoms: _483  and  _485
REMARK  179  A    between atoms: _485  and  _486
REMARK  180  A    between atoms: _485  and  _488
REMARK  181  A    between atoms: _488  and  _489
REMARK  182  A    between atoms: _489  and  _490
REMARK  183  A    between atoms: _493  and  _495
REMARK  184  A    between atoms: _495  and  _496
REMARK  185  A    between atoms: _498  and  _500
REMARK  186  A    between atoms: _500  and  _501
REMARK  187  A    between atoms: _500  and  _503
REMARK  188  A    between atoms: _503  and  _504
REMARK  189  A    between atoms: _510  and  _511
REMARK  190  A    between atoms: _516  and  _518
REMARK  191  A    between atoms: _518  and  _519
REMARK  192  A    between atoms: _521  and  _523
REMARK  193  A    between atoms: _523  and  _524
REMARK  194  A    between atoms: _523  and  _526
REMARK  195  A    between atoms: _526  and  _527
REMARK  196  A    between atoms: _533  and  _535
REMARK  197  A    between atoms: _535  and  _536
REMARK  198  A    between atoms: _535  and  _538
REMARK  199  A    between atoms: _538  and  _539
REMARK  200  A    between atoms: _544  and  _546
REMARK  201  A    between atoms: _546  and  _547
REMARK  202  A    between atoms: _546  and  _549
REMARK  203  A    between atoms: _549  and  _550
REMARK  204  A    between atoms: _550  and  _551
REMARK  205  A    between atoms: _551  and  _552
REMARK  206  A    between atoms: _552  and  ZN_793
REMARK  207  A    between atoms: _554  and  _556
REMARK  208  A    between atoms: _556  and  _557
REMARK  209  A    between atoms: _560  and  _562
REMARK  210  A    between atoms: _562  and  _563
REMARK  211  A    between atoms: _562  and  _565
REMARK  212  A    between atoms: _565  and  _566
REMARK  213  A    between atoms: _569  and  _571
REMARK  214  A    between atoms: _571  and  _572
REMARK  215  A    between atoms: _575  and  _577
REMARK  216  A    between atoms: _577  and  _578
REMARK  217  A    between atoms: _577  and  _580
REMARK  218  A    between atoms: _580  and  _581
REMARK  219  A    between atoms: _584  and  _586
REMARK  220  A    between atoms: _586  and  _587
REMARK  221  A    between atoms: _586  and  _589
REMARK  222  A    between atoms: _589  and  _590
REMARK  223  A    between atoms: _590  and  _591
REMARK  224  A    between atoms: _591  and  _592
REMARK  225  A    between atoms: _592  and  _593
REMARK  226  A    between atoms: _597  and  _599
REMARK  227  A    between atoms: _599  and  _600
REMARK  228  A    between atoms: _599  and  _602
REMARK  229  A    between atoms: _602  and  _603
REMARK  230  A    between atoms: _609  and  _611
REMARK  231  A    between atoms: _611  and  _612
REMARK  232  A    between atoms: _611  and  _614
REMARK  233  A    between atoms: _614  and  _615
REMARK  234  A    between atoms: _621  and  _623
REMARK  235  A    between atoms: _623  and  _624
REMARK  236  A    between atoms: _623  and  _626
REMARK  237  A    between atoms: _626  and  _627
REMARK  238  A    between atoms: _629  and  _631
REMARK  239  A    between atoms: _631  and  _632
REMARK  240  A    between atoms: _631  and  _634
REMARK  241  A    between atoms: _637  and  _639
REMARK  242  A    between atoms: _639  and  _640
REMARK  243  A    between atoms: _639  and  _642
REMARK  244  A    between atoms: _642  and  _643
REMARK  245  A    between atoms: _643  and  _644
REMARK  246  A    between atoms: _644  and  _645
REMARK  247  A    between atoms: _645  and  _646
REMARK  248  A    between atoms: _650  and  _652
REMARK  249  A    between atoms: _652  and  _653
REMARK  250  A    between atoms: _652  and  _655
REMARK  251  A    between atoms: _655  and  _656
REMARK  252  A    between atoms: _662  and  _664
REMARK  253  A    between atoms: _664  and  _665
REMARK  254  A    between atoms: _664  and  _667
REMARK  255  A    between atoms: _667  and  _668
REMARK  256  A    between atoms: _673  and  _675
REMARK  257  A    between atoms: _675  and  _676
REMARK  258  A    between atoms: _675  and  _678
REMARK  259  A    between atoms: _678  and  _679
REMARK  260  A    between atoms: _681  and  _683
REMARK  261  A    between atoms: _683  and  _684
REMARK  262  A    between atoms: _683  and  _686
REMARK  263  A    between atoms: _686  and  _687
REMARK  264  A    between atoms: _689  and  _691
REMARK  265  A    between atoms: _691  and  _692
REMARK  266  A    between atoms: _691  and  _694
REMARK  267  A    between atoms: _698  and  _699
REMARK  268  A    between atoms: _704  and  _706
REMARK  269  A    between atoms: _706  and  _707
REMARK  270  A    between atoms: _706  and  _709
REMARK  271  A    between atoms: _709  and  _710
REMARK  272  A    between atoms: _715  and  _716
REMARK  273  A    between atoms: _718  and  _720
REMARK  274  A    between atoms: _720  and  _721
REMARK  275  A    between atoms: _720  and  _723
REMARK  276  A    between atoms: _723  and  _724
REMARK  277  A    between atoms: _724  and  _725
REMARK  278  A    between atoms: _725  and  _726
REMARK  279  A    between atoms: _735  and  _737
REMARK  280  A    between atoms: _737  and  _738
REMARK  281  A    between atoms: _737  and  _740
REMARK  282  A    between atoms: _740  and  _741
REMARK  283  A    between atoms: _746  and  _747
REMARK  284  A    between atoms: _749  and  _751
REMARK  285  A    between atoms: _751  and  _752
REMARK  286  A    between atoms: _751  and  _754
REMARK  287  A    between atoms: _754  and  _755
REMARK  288  A    between atoms: _761  and  _763
REMARK  289  A    between atoms: _763  and  _764
REMARK  290  A    between atoms: _763  and  _766
REMARK  291  A    between atoms: _766  and  _767
REMARK  292  A    between atoms: _769  and  _771
REMARK  293  A    between atoms: _771  and  _772
REMARK  294  A    between atoms: _771  and  _774
REMARK  295  A    between atoms: _774  and  _775
REMARK  296  A    between atoms: _781  and  _783
REMARK  297  A    between atoms: _783  and  _784
REMARK  298  A    between atoms: _783  and  _786
REMARK  299  A    between atoms: _786  and  _787
REMARK  300  A    between atoms: _787  and  _788
REMARK                            x       y       z     vdW  Elec       q    Type
REMARK                         _______ _______ _______ _____ _____    ______ ____
ROOT
ATOM      1  O   HOH     1      13.136   1.026 -19.413  0.00  0.00    +0.000 OA
ENDROOT
TORSDOF 0
REMARK  Name = ../refined-set-2016/4ca5/4ca5_pocket.pdb
REMARK  300 active torsions:
REMARK  status: ('A' for Active; 'I' for Inactive)
REMARK    1  A    between atoms: _1  and  _3
REMARK    2  A    between atoms: _3  and  _4
REMARK    3  A    between atoms: _3  and  _6
REMARK    4  A    between atoms: _6  and  _7
REMARK    5  A    between atoms: _12  and  _14
REMARK    6  A    between atoms: _14  and  _15
REMARK    7  A    between atoms: _14  and  _17
REMARK    8  A    between atoms: _17  and  _18
REMARK    9  A    between atoms: _23  and  _25
REMARK   10  A    between atoms: _25  and  _26
REMARK   11  A    between atoms: _25  and  _28
REMARK   12  A    between atoms: _28  and  _29
REMARK   13  A    between atoms: _29  and  _30
REMARK   14  A    between atoms: _33  and  _35
REMARK   15  A    between atoms: _35  and  _36
REMARK   16  A    between atoms: _35  and  _38
REMARK   17  A    between atoms: _38  and  _39
REMARK   18  A    between atoms: _44  and  _45
REMARK   19  A    between atoms: _47  and  _49
REMARK   20  A    between atoms: _49  and  _50
REMARK   21  A    between atoms: _49  and  _52
REMARK   22  A    between atoms: _52  and  _53
REMARK   23  A    between atoms: _53  and  _54
REMARK   24  A    between atoms: _57  and  _59
REMARK   25  A    between atoms: _59  and  _60
REMARK   26  A    between atoms: _59  and  _62
REMARK   27  A    between atoms: _62  and  _63
REMARK   28  A    between atoms: _66  and  _68
REMARK   29  A    between atoms: _68  and  _69
REMARK   30  A    between atoms: _71  and  _73
REMARK   31  A    between atoms: _73  and  _74
REMARK   32  A    between atoms: _73  and  _76
REMARK   33  A    between atoms: _76  and  _77
REMARK   34  A    between atoms: _82  and  _84
REMARK   35  A    between atoms: _84  and  _85
REMARK   36  A    between atoms: _84  and  _87
REMARK   37  A    between atoms: _87  and  _88
REMARK   38  A    between atoms: _88  and  _89
REMARK   39  A    between atoms: _91  and  _93
REMARK   40  A    between atoms: _93  and  _94
REMARK   41  A    between atoms: _93  and  _96
REMARK   42  A    between atoms: _96  and  _97
REMARK   43  A    between atoms: _107  and  _109
REMARK   44  A    between atoms: _109  and  _110
REMARK   45  A    between atoms: _109  and  _112
REMARK   46  A    between atoms: _112  and  _113
REMARK   47  A    between atoms: _113  and  _114
REMARK   48  A    between atoms: _119  and  _121
REMARK   49  A    between atoms: _121  and  _122
REMARK   50  A    between atoms: _121  and  _124
REMARK   51  A    between atoms: _124  and  _125
REMARK   52  A    between atoms: _128  and  _130
REMARK   53  A    between atoms: _130  and  _131
REMARK   54  A    between atoms: _130  and  _133
REMARK   55  A    between atoms: _133  and  _134
REMARK   56  A    between atoms: _144  and  _146
REMARK   57  A    between atoms: _146  and  _147
REMARK   58  A    between atoms: _146  and  _149
REMARK   59  A    between atoms: _149  and  _150
REMARK   60  A    between atoms: _152  and  _154
REMARK   61  A    between atoms: _154  and  _155
REMARK   62  A    between atoms: _154  and  _157
REMARK   63  A    between atoms: _157  and  _158
REMARK   64  A    between atoms: _163  and  _165
REMARK   65  A    between atoms: _165  and  _166
REMARK   66  A    between atoms: _165  and  _168
REMARK   67  A    between atoms: _171  and  _173
REMARK   68  A    between atoms: _173  and  _174
REMARK   69  A    between atoms: _173  and  _176
REMARK   70  A    between atoms: _178  and  _180
REMARK   71  A    between atoms: _180  and  _181
REMARK   72  A    between atoms: _180  and  _183
REMARK   73  A    between atoms: _183  and  _184
REMARK   74  A    between atoms: _189  and  _191
REMARK   75  A    between atoms: _191  and  _192
REMARK   76  A    between atoms: _195  and  _197
REMARK   77  A    between atoms: _197  and  _198
REMARK   78  A    between atoms: _197  and  _200
REMARK   79  A    between atoms: _200  and  _201
REMARK   80  A    between atoms: _203  and  _205
REMARK   81  A    between atoms: _205  and  _206
REMARK   82  A    between atoms: _209  and  _211
REMARK   83  A    between atoms: _211  and  _212
REMARK   84  A    between atoms: _211  and  _214
REMARK   85  A    between atoms: _214  and  _215
REMARK   86  A    between atoms: _225  and  _227
REMARK   87  A    between atoms: _227  and  _228
REMARK   88  A    between atoms: _227  and  _230
REMARK   89  A    between atoms: _230  and  _231
REMARK   90  A    between atoms: _234  and  _236
REMARK   91  A    between atoms: _236  and  _237
REMARK   92  A    between atoms: _236  and  _239
REMARK   93  A    between atoms: _239  and  _240
REMARK   94  A    between atoms: _245  and  _246
REMARK   95  A    between atoms: _248  and  _250
REMARK   96  A    between atoms: _250  and  _251
REMARK   97  A    between atoms: _250  and  _253
REMARK   98  A    between atoms: _253  and  _254
REMARK   99  A    between atoms: _254  and  _255
REMARK  100  A    between atoms: _255  and  _256
REMARK  101  A    between atoms: _265  and  _267
REMARK  102  A    between atoms: _267  and  _268
REMARK  103  A    between atoms: _267  and  _270
REMARK  104  A    between atoms: _270  and  _271
REMARK  105  A    between atoms: _274  and  _276
REMARK  106  A    between atoms: _276  and  _277
REMARK  107  A    between atoms: _276  and  _279
REMARK  108  A    between atoms: _279  and  _280
REMARK  109  A    between atoms: _280  and  _281
REMARK  110  A    between atoms: _281  and  _282
REMARK  111  A    between atoms: _282  and  _283
REMARK  112  A    between atoms: _287  and  _289
REMARK  113  A    between atoms: _289  and  _290
REMARK  114  A    between atoms: _289  and  _292
REMARK  115  A    between atoms: _292  and  _293
REMARK  116  A    between atoms: _293  and  _294
REMARK  117  A    between atoms: _299  and  _301
REMARK  118  A    between atoms: _301  and  _302
REMARK  119  A    between atoms: _301  and  _304
REMARK  120  A    between atoms: _304  and  _305
REMARK  121  A    between atoms: _310  and  _312
REMARK  122  A    between atoms: _312  and  _313
REMARK  123  A    between atoms: _312  and  _315
REMARK  124  A    between atoms: _315  and  _316
REMARK  125  A    between atoms: _319  and  _321
REMARK  126  A    between atoms: _321  and  _322
REMARK  127  A    between atoms: _321  and  _324
REMARK  128  A    between atoms: _324  and  _325
REMARK  129  A    between atoms: _325  and  _326
REMARK  130  A    between atoms: _329  and  _331
REMARK  131  A    between atoms: _331  and  _332
REMARK  132  A    between atoms: _331  and  _334
REMARK  133  A    between atoms: _334  and  _335
REMARK  134  A    between atoms: _338  and  _340
REMARK  135  A    between atoms: _340  and  _341
REMARK  136  A    between atoms: _340  and  _343
REMARK  137  A    between atoms: _346  and  _348
REMARK  138  A    between atoms: _348  and  _349
REMARK  139  A    between atoms: _348  and  _351
REMARK  140  A    between atoms: _354  and  _356
REMARK  141  A    between atoms: _356  and  _357
REMARK  142  A    between atoms: _360  and  _362
REMARK  143  A    between atoms: _362  and  _363
REMARK  144  A    between atoms: _362  and  _365
REMARK  145  A    between atoms: _365  and  _366
REMARK  146  A    between atoms: _371  and  _373
REMARK  147  A    between atoms: _384  and  _387
REMARK  148  A    between atoms: _387  and  _388
REMARK  149  A    between atoms: _388  and  _389
REMARK  150  A    between atoms: _394  and  _397
REMARK  151  A    between atoms: _397  and  _398
REMARK  152  A    between atoms: _398  and  _399
REMARK  153  A    between atoms: _408  and  _409
REMARK  154  A    between atoms: _417  and  _419
REMARK  155  A    between atoms: _419  and  _420
REMARK  156  A    between atoms: _419  and  _422
REMARK  157  A    between atoms: _422  and  _423
REMARK  158  A    between atoms: _426  and  _428
REMARK  159  A    between atoms: _428  and  _429
REMARK  160  A    between atoms: _428  and  _431
REMARK  161  A    between atoms: _431  and  _432
REMARK  162  A    between atoms: _437  and  _438
REMARK  163  A    between atoms: _440  and  _442
REMARK  164  A    between atoms: _442  and  _443
REMARK  165  A    between atoms: _442  and  _445
REMARK  166  A    between atoms: _445  and  _446
REMARK  167  A    between atoms: _452  and  _454
REMARK  168  A    between atoms: _454  and  _455
REMARK  169  A    between atoms: _454  and  _457
REMARK  170  A    between atoms: _457  and  _458
REMARK  171  A    between atoms: _463  and  _464
REMARK  172  A    between atoms: _466  and  _468
REMARK  173  A    between atoms: _468  and  _469
REMARK  174  A    between atoms: _468  and  _471
REMARK  175  A    between atoms: _471  and  _472
REMARK  176  A    between atoms: _472  and  _473
REMARK  177  A    between atoms: _473  and  _474
REMARK  178  A    between atoms: _483  and  _485
REMARK  179  A    between atoms: _485  and  _486
REMARK  180  A    between atoms: _485  and  _488
REMARK  181  A    between atoms: _488  and  _489
REMARK  182  A    between atoms: _489  and  _490
REMARK  183  A    between atoms: _493  and  _495
REMARK  184  A    between atoms: _495  and  _496
REMARK  185  A    between atoms: _498  and  _500
REMARK  186  A    between atoms: _500  and  _501
REMARK  187  A    between atoms: _500  and  _503
REMARK  188  A    between atoms: _503  and  _504
REMARK  189  A    between atoms: _510  and  _511
REMARK  190  A    between atoms: _516  and  _518
REMARK  191  A    between atoms: _518  and  _519
REMARK  192  A    between atoms: _521  and  _523
REMARK  193  A    between atoms: _523  and  _524
REMARK  194  A    between atoms: _523  and  _526
REMARK  195  A    between atoms: _526  and  _527
REMARK  196  A    between atoms: _533  and  _535
REMARK  197  A    between atoms: _535  and  _536
REMARK  198  A    between atoms: _535  and  _538
REMARK  199  A    between atoms: _538  and  _539
REMARK  200  A    between atoms: _544  and  _546
REMARK  201  A    between atoms: _546  and  _547
REMARK  202  A    between atoms: _546  and  _549
REMARK  203  A    between atoms: _549  and  _550
REMARK  204  A    between atoms: _550  and  _551
REMARK  205  A    between atoms: _551  and  _552
REMARK  206  A    between atoms: _552  and  ZN_793
REMARK  207  A    between atoms: _554  and  _556
REMARK  208  A    between atoms: _556  and  _557
REMARK  209  A    between atoms: _560  and  _562
REMARK  210  A    between atoms: _562  and  _563
REMARK  211  A    between atoms: _562  and  _565
REMARK  212  A    between atoms: _565  and  _566
REMARK  213  A    between atoms: _569  and  _571
REMARK  214  A    between atoms: _571  and  _572
REMARK  215  A    between atoms: _575  and  _577
REMARK  216  A    between atoms: _577  and  _578
REMARK  217  A    between atoms: _577  and  _580
REMARK  218  A    between atoms: _580  and  _581
REMARK  219  A    between atoms: _584  and  _586
REMARK  220  A    between atoms: _586  and  _587
REMARK  221  A    between atoms: _586  and  _589
REMARK  222  A    between atoms: _589  and  _590
REMARK  223  A    between atoms: _590  and  _591
REMARK  224  A    between atoms: _591  and  _592
REMARK  225  A    between atoms: _592  and  _593
REMARK  226  A    between atoms: _597  and  _599
REMARK  227  A    between atoms: _599  and  _600
REMARK  228  A    between atoms: _599  and  _602
REMARK  229  A    between atoms: _602  and  _603
REMARK  230  A    between atoms: _609  and  _611
REMARK  231  A    between atoms: _611  and  _612
REMARK  232  A    between atoms: _611  and  _614
REMARK  233  A    between atoms: _614  and  _615
REMARK  234  A    between atoms: _621  and  _623
REMARK  235  A    between atoms: _623  and  _624
REMARK  236  A    between atoms: _623  and  _626
REMARK  237  A    between atoms: _626  and  _627
REMARK  238  A    between atoms: _629  and  _631
REMARK  239  A    between atoms: _631  and  _632
REMARK  240  A    between atoms: _631  and  _634
REMARK  241  A    between atoms: _637  and  _639
REMARK  242  A    between atoms: _639  and  _640
REMARK  243  A    between atoms: _639  and  _642
REMARK  244  A    between atoms: _642  and  _643
REMARK  245  A    between atoms: _643  and  _644
REMARK  246  A    between atoms: _644  and  _645
REMARK  247  A    between atoms: _645  and  _646
REMARK  248  A    between atoms: _650  and  _652
REMARK  249  A    between atoms: _652  and  _653
REMARK  250  A    between atoms: _652  and  _655
REMARK  251  A    between atoms: _655  and  _656
REMARK  252  A    between atoms: _662  and  _664
REMARK  253  A    between atoms: _664  and  _665
REMARK  254  A    between atoms: _664  and  _667
REMARK  255  A    between atoms: _667  and  _668
REMARK  256  A    between atoms: _673  and  _675
REMARK  257  A    between atoms: _675  and  _676
REMARK  258  A    between atoms: _675  and  _678
REMARK  259  A    between atoms: _678  and  _679
REMARK  260  A    between atoms: _681  and  _683
REMARK  261  A    between atoms: _683  and  _684
REMARK  262  A    between atoms: _683  and  _686
REMARK  263  A    between atoms: _686  and  _687
REMARK  264  A    between atoms: _689  and  _691
REMARK  265  A    between atoms: _691  and  _692
REMARK  266  A    between atoms: _691  and  _694
REMARK  267  A    between atoms: _698  and  _699
REMARK  268  A    between atoms: _704  and  _706
REMARK  269  A    between atoms: _706  and  _707
REMARK  270  A    between atoms: _706  and  _709
REMARK  271  A    between atoms: _709  and  _710
REMARK  272  A    between atoms: _715  and  _716
REMARK  273  A    between atoms: _718  and  _720
REMARK  274  A    between atoms: _720  and  _721
REMARK  275  A    between atoms: _720  and  _723
REMARK  276  A    between atoms: _723  and  _724
REMARK  277  A    between atoms: _724  and  _725
REMARK  278  A    between atoms: _725  and  _726
REMARK  279  A    between atoms: _735  and  _737
REMARK  280  A    between atoms: _737  and  _738
REMARK  281  A    between atoms: _737  and  _740
REMARK  282  A    between atoms: _740  and  _741
REMARK  283  A    between atoms: _746  and  _747
REMARK  284  A    between atoms: _749  and  _751
REMARK  285  A    between atoms: _751  and  _752
REMARK  286  A    between atoms: _751  and  _754
REMARK  287  A    between atoms: _754  and  _755
REMARK  288  A    between atoms: _761  and  _763
REMARK  289  A    between atoms: _763  and  _764
REMARK  290  A    between atoms: _763  and  _766
REMARK  291  A    between atoms: _766  and  _767
REMARK  292  A    between atoms: _769  and  _771
REMARK  293  A    between atoms: _771  and  _772
REMARK  294  A    between atoms: _771  and  _774
REMARK  295  A    between atoms: _774  and  _775
REMARK  296  A    between atoms: _781  and  _783
REMARK  297  A    between atoms: _783  and  _784
REMARK  298  A    between atoms: _783  and  _786
REMARK  299  A    between atoms: _786  and  _787
REMARK  300  A    between atoms: _787  and  _788
REMARK                            x       y       z     vdW  Elec       q    Type
REMARK                         _______ _______ _______ _____ _____    ______ ____
ROOT
ATOM      1  O   HOH     1      16.673  -3.011 -25.821  0.00  0.00    +0.000 OA
ENDROOT
TORSDOF 0
REMARK  Name = ../refined-set-2016/4ca5/4ca5_pocket.pdb
REMARK  300 active torsions:
REMARK  status: ('A' for Active; 'I' for Inactive)
REMARK    1  A    between atoms: _1  and  _3
REMARK    2  A    between atoms: _3  and  _4
REMARK    3  A    between atoms: _3  and  _6
REMARK    4  A    between atoms: _6  and  _7
REMARK    5  A    between atoms: _12  and  _14
REMARK    6  A    between atoms: _14  and  _15
REMARK    7  A    between atoms: _14  and  _17
REMARK    8  A    between atoms: _17  and  _18
REMARK    9  A    between atoms: _23  and  _25
REMARK   10  A    between atoms: _25  and  _26
REMARK   11  A    between atoms: _25  and  _28
REMARK   12  A    between atoms: _28  and  _29
REMARK   13  A    between atoms: _29  and  _30
REMARK   14  A    between atoms: _33  and  _35
REMARK   15  A    between atoms: _35  and  _36
REMARK   16  A    between atoms: _35  and  _38
REMARK   17  A    between atoms: _38  and  _39
REMARK   18  A    between atoms: _44  and  _45
REMARK   19  A    between atoms: _47  and  _49
REMARK   20  A    between atoms: _49  and  _50
REMARK   21  A    between atoms: _49  and  _52
REMARK   22  A    between atoms: _52  and  _53
REMARK   23  A    between atoms: _53  and  _54
REMARK   24  A    between atoms: _57  and  _59
REMARK   25  A    between atoms: _59  and  _60
REMARK   26  A    between atoms: _59  and  _62
REMARK   27  A    between atoms: _62  and  _63
REMARK   28  A    between atoms: _66  and  _68
REMARK   29  A    between atoms: _68  and  _69
REMARK   30  A    between atoms: _71  and  _73
REMARK   31  A    between atoms: _73  and  _74
REMARK   32  A    between atoms: _73  and  _76
REMARK   33  A    between atoms: _76  and  _77
REMARK   34  A    between atoms: _82  and  _84
REMARK   35  A    between atoms: _84  and  _85
REMARK   36  A    between atoms: _84  and  _87
REMARK   37  A    between atoms: _87  and  _88
REMARK   38  A    between atoms: _88  and  _89
REMARK   39  A    between atoms: _91  and  _93
REMARK   40  A    between atoms: _93  and  _94
REMARK   41  A    between atoms: _93  and  _96
REMARK   42  A    between atoms: _96  and  _97
REMARK   43  A    between atoms: _107  and  _109
REMARK   44  A    between atoms: _109  and  _110
REMARK   45  A    between atoms: _109  and  _112
REMARK   46  A    between atoms: _112  and  _113
REMARK   47  A    between atoms: _113  and  _114
REMARK   48  A    between atoms: _119  and  _121
REMARK   49  A    between atoms: _121  and  _122
REMARK   50  A    between atoms: _121  and  _124
REMARK   51  A    between atoms: _124  and  _125
REMARK   52  A    between atoms: _128  and  _130
REMARK   53  A    between atoms: _130  and  _131
REMARK   54  A    between atoms: _130  and  _133
REMARK   55  A    between atoms: _133  and  _134
REMARK   56  A    between atoms: _144  and  _146
REMARK   57  A    between atoms: _146  and  _147
REMARK   58  A    between atoms: _146  and  _149
REMARK   59  A    between atoms: _149  and  _150
REMARK   60  A    between atoms: _152  and  _154
REMARK   61  A    between atoms: _154  and  _155
REMARK   62  A    between atoms: _154  and  _157
REMARK   63  A    between atoms: _157  and  _158
REMARK   64  A    between atoms: _163  and  _165
REMARK   65  A    between atoms: _165  and  _166
REMARK   66  A    between atoms: _165  and  _168
REMARK   67  A    between atoms: _171  and  _173
REMARK   68  A    between atoms: _173  and  _174
REMARK   69  A    between atoms: _173  and  _176
REMARK   70  A    between atoms: _178  and  _180
REMARK   71  A    between atoms: _180  and  _181
REMARK   72  A    between atoms: _180  and  _183
REMARK   73  A    between atoms: _183  and  _184
REMARK   74  A    between atoms: _189  and  _191
REMARK   75  A    between atoms: _191  and  _192
REMARK   76  A    between atoms: _195  and  _197
REMARK   77  A    between atoms: _197  and  _198
REMARK   78  A    between atoms: _197  and  _200
REMARK   79  A    between atoms: _200  and  _201
REMARK   80  A    between atoms: _203  and  _205
REMARK   81  A    between atoms: _205  and  _206
REMARK   82  A    between atoms: _209  and  _211
REMARK   83  A    between atoms: _211  and  _212
REMARK   84  A    between atoms: _211  and  _214
REMARK   85  A    between atoms: _214  and  _215
REMARK   86  A    between atoms: _225  and  _227
REMARK   87  A    between atoms: _227  and  _228
REMARK   88  A    between atoms: _227  and  _230
REMARK   89  A    between atoms: _230  and  _231
REMARK   90  A    between atoms: _234  and  _236
REMARK   91  A    between atoms: _236  and  _237
REMARK   92  A    between atoms: _236  and  _239
REMARK   93  A    between atoms: _239  and  _240
REMARK   94  A    between atoms: _245  and  _246
REMARK   95  A    between atoms: _248  and  _250
REMARK   96  A    between atoms: _250  and  _251
REMARK   97  A    between atoms: _250  and  _253
REMARK   98  A    between atoms: _253  and  _254
REMARK   99  A    between atoms: _254  and  _255
REMARK  100  A    between atoms: _255  and  _256
REMARK  101  A    between atoms: _265  and  _267
REMARK  102  A    between atoms: _267  and  _268
REMARK  103  A    between atoms: _267  and  _270
REMARK  104  A    between atoms: _270  and  _271
REMARK  105  A    between atoms: _274  and  _276
REMARK  106  A    between atoms: _276  and  _277
REMARK  107  A    between atoms: _276  and  _279
REMARK  108  A    between atoms: _279  and  _280
REMARK  109  A    between atoms: _280  and  _281
REMARK  110  A    between atoms: _281  and  _282
REMARK  111  A    between atoms: _282  and  _283
REMARK  112  A    between atoms: _287  and  _289
REMARK  113  A    between atoms: _289  and  _290
REMARK  114  A    between atoms: _289  and  _292
REMARK  115  A    between atoms: _292  and  _293
REMARK  116  A    between atoms: _293  and  _294
REMARK  117  A    between atoms: _299  and  _301
REMARK  118  A    between atoms: _301  and  _302
REMARK  119  A    between atoms: _301  and  _304
REMARK  120  A    between atoms: _304  and  _305
REMARK  121  A    between atoms: _310  and  _312
REMARK  122  A    between atoms: _312  and  _313
REMARK  123  A    between atoms: _312  and  _315
REMARK  124  A    between atoms: _315  and  _316
REMARK  125  A    between atoms: _319  and  _321
REMARK  126  A    between atoms: _321  and  _322
REMARK  127  A    between atoms: _321  and  _324
REMARK  128  A    between atoms: _324  and  _325
REMARK  129  A    between atoms: _325  and  _326
REMARK  130  A    between atoms: _329  and  _331
REMARK  131  A    between atoms: _331  and  _332
REMARK  132  A    between atoms: _331  and  _334
REMARK  133  A    between atoms: _334  and  _335
REMARK  134  A    between atoms: _338  and  _340
REMARK  135  A    between atoms: _340  and  _341
REMARK  136  A    between atoms: _340  and  _343
REMARK  137  A    between atoms: _346  and  _348
REMARK  138  A    between atoms: _348  and  _349
REMARK  139  A    between atoms: _348  and  _351
REMARK  140  A    between atoms: _354  and  _356
REMARK  141  A    between atoms: _356  and  _357
REMARK  142  A    between atoms: _360  and  _362
REMARK  143  A    between atoms: _362  and  _363
REMARK  144  A    between atoms: _362  and  _365
REMARK  145  A    between atoms: _365  and  _366
REMARK  146  A    between atoms: _371  and  _373
REMARK  147  A    between atoms: _384  and  _387
REMARK  148  A    between atoms: _387  and  _388
REMARK  149  A    between atoms: _388  and  _389
REMARK  150  A    between atoms: _394  and  _397
REMARK  151  A    between atoms: _397  and  _398
REMARK  152  A    between atoms: _398  and  _399
REMARK  153  A    between atoms: _408  and  _409
REMARK  154  A    between atoms: _417  and  _419
REMARK  155  A    between atoms: _419  and  _420
REMARK  156  A    between atoms: _419  and  _422
REMARK  157  A    between atoms: _422  and  _423
REMARK  158  A    between atoms: _426  and  _428
REMARK  159  A    between atoms: _428  and  _429
REMARK  160  A    between atoms: _428  and  _431
REMARK  161  A    between atoms: _431  and  _432
REMARK  162  A    between atoms: _437  and  _438
REMARK  163  A    between atoms: _440  and  _442
REMARK  164  A    between atoms: _442  and  _443
REMARK  165  A    between atoms: _442  and  _445
REMARK  166  A    between atoms: _445  and  _446
REMARK  167  A    between atoms: _452  and  _454
REMARK  168  A    between atoms: _454  and  _455
REMARK  169  A    between atoms: _454  and  _457
REMARK  170  A    between atoms: _457  and  _458
REMARK  171  A    between atoms: _463  and  _464
REMARK  172  A    between atoms: _466  and  _468
REMARK  173  A    between atoms: _468  and  _469
REMARK  174  A    between atoms: _468  and  _471
REMARK  175  A    between atoms: _471  and  _472
REMARK  176  A    between atoms: _472  and  _473
REMARK  177  A    between atoms: _473  and  _474
REMARK  178  A    between atoms: _483  and  _485
REMARK  179  A    between atoms: _485  and  _486
REMARK  180  A    between atoms: _485  and  _488
REMARK  181  A    between atoms: _488  and  _489
REMARK  182  A    between atoms: _489  and  _490
REMARK  183  A    between atoms: _493  and  _495
REMARK  184  A    between atoms: _495  and  _496
REMARK  185  A    between atoms: _498  and  _500
REMARK  186  A    between atoms: _500  and  _501
REMARK  187  A    between atoms: _500  and  _503
REMARK  188  A    between atoms: _503  and  _504
REMARK  189  A    between atoms: _510  and  _511
REMARK  190  A    between atoms: _516  and  _518
REMARK  191  A    between atoms: _518  and  _519
REMARK  192  A    between atoms: _521  and  _523
REMARK  193  A    between atoms: _523  and  _524
REMARK  194  A    between atoms: _523  and  _526
REMARK  195  A    between atoms: _526  and  _527
REMARK  196  A    between atoms: _533  and  _535
REMARK  197  A    between atoms: _535  and  _536
REMARK  198  A    between atoms: _535  and  _538
REMARK  199  A    between atoms: _538  and  _539
REMARK  200  A    between atoms: _544  and  _546
REMARK  201  A    between atoms: _546  and  _547
REMARK  202  A    between atoms: _546  and  _549
REMARK  203  A    between atoms: _549  and  _550
REMARK  204  A    between atoms: _550  and  _551
REMARK  205  A    between atoms: _551  and  _552
REMARK  206  A    between atoms: _552  and  ZN_793
REMARK  207  A    between atoms: _554  and  _556
REMARK  208  A    between atoms: _556  and  _557
REMARK  209  A    between atoms: _560  and  _562
REMARK  210  A    between atoms: _562  and  _563
REMARK  211  A    between atoms: _562  and  _565
REMARK  212  A    between atoms: _565  and  _566
REMARK  213  A    between atoms: _569  and  _571
REMARK  214  A    between atoms: _571  and  _572
REMARK  215  A    between atoms: _575  and  _577
REMARK  216  A    between atoms: _577  and  _578
REMARK  217  A    between atoms: _577  and  _580
REMARK  218  A    between atoms: _580  and  _581
REMARK  219  A    between atoms: _584  and  _586
REMARK  220  A    between atoms: _586  and  _587
REMARK  221  A    between atoms: _586  and  _589
REMARK  222  A    between atoms: _589  and  _590
REMARK  223  A    between atoms: _590  and  _591
REMARK  224  A    between atoms: _591  and  _592
REMARK  225  A    between atoms: _592  and  _593
REMARK  226  A    between atoms: _597  and  _599
REMARK  227  A    between atoms: _599  and  _600
REMARK  228  A    between atoms: _599  and  _602
REMARK  229  A    between atoms: _602  and  _603
REMARK  230  A    between atoms: _609  and  _611
REMARK  231  A    between atoms: _611  and  _612
REMARK  232  A    between atoms: _611  and  _614
REMARK  233  A    between atoms: _614  and  _615
REMARK  234  A    between atoms: _621  and  _623
REMARK  235  A    between atoms: _623  and  _624
REMARK  236  A    between atoms: _623  and  _626
REMARK  237  A    between atoms: _626  and  _627
REMARK  238  A    between atoms: _629  and  _631
REMARK  239  A    between atoms: _631  and  _632
REMARK  240  A    between atoms: _631  and  _634
REMARK  241  A    between atoms: _637  and  _639
REMARK  242  A    between atoms: _639  and  _640
REMARK  243  A    between atoms: _639  and  _642
REMARK  244  A    between atoms: _642  and  _643
REMARK  245  A    between atoms: _643  and  _644
REMARK  246  A    between atoms: _644  and  _645
REMARK  247  A    between atoms: _645  and  _646
REMARK  248  A    between atoms: _650  and  _652
REMARK  249  A    between atoms: _652  and  _653
REMARK  250  A    between atoms: _652  and  _655
REMARK  251  A    between atoms: _655  and  _656
REMARK  252  A    between atoms: _662  and  _664
REMARK  253  A    between atoms: _664  and  _665
REMARK  254  A    between atoms: _664  and  _667
REMARK  255  A    between atoms: _667  and  _668
REMARK  256  A    between atoms: _673  and  _675
REMARK  257  A    between atoms: _675  and  _676
REMARK  258  A    between atoms: _675  and  _678
REMARK  259  A    between atoms: _678  and  _679
REMARK  260  A    between atoms: _681  and  _683
REMARK  261  A    between atoms: _683  and  _684
REMARK  262  A    between atoms: _683  and  _686
REMARK  263  A    between atoms: _686  and  _687
REMARK  264  A    between atoms: _689  and  _691
REMARK  265  A    between atoms: _691  and  _692
REMARK  266  A    between atoms: _691  and  _694
REMARK  267  A    between atoms: _698  and  _699
REMARK  268  A    between atoms: _704  and  _706
REMARK  269  A    between atoms: _706  and  _707
REMARK  270  A    between atoms: _706  and  _709
REMARK  271  A    between atoms: _709  and  _710
REMARK  272  A    between atoms: _715  and  _716
REMARK  273  A    between atoms: _718  and  _720
REMARK  274  A    between atoms: _720  and  _721
REMARK  275  A    between atoms: _720  and  _723
REMARK  276  A    between atoms: _723  and  _724
REMARK  277  A    between atoms: _724  and  _725
REMARK  278  A    between atoms: _725  and  _726
REMARK  279  A    between atoms: _735  and  _737
REMARK  280  A    between atoms: _737  and  _738
REMARK  281  A    between atoms: _737  and  _740
REMARK  282  A    between atoms: _740  and  _741
REMARK  283  A    between atoms: _746  and  _747
REMARK  284  A    between atoms: _749  and  _751
REMARK  285  A    between atoms: _751  and  _752
REMARK  286  A    between atoms: _751  and  _754
REMARK  287  A    between atoms: _754  and  _755
REMARK  288  A    between atoms: _761  and  _763
REMARK  289  A    between atoms: _763  and  _764
REMARK  290  A    between atoms: _763  and  _766
REMARK  291  A    between atoms: _766  and  _767
REMARK  292  A    between atoms: _769  and  _771
REMARK  293  A    between atoms: _771  and  _772
REMARK  294  A    between atoms: _771  and  _774
REMARK  295  A    between atoms: _774  and  _775
REMARK  296  A    between atoms: _781  and  _783
REMARK  297  A    between atoms: _783  and  _784
REMARK  298  A    between atoms: _783  and  _786
REMARK  299  A    between atoms: _786  and  _787
REMARK  300  A    between atoms: _787  and  _788
REMARK                            x       y       z     vdW  Elec       q    Type
REMARK                         _______ _______ _______ _____ _____    ______ ____
ROOT
ATOM      1  O   HOH     1      11.553  -2.908 -19.191  0.00  0.00    +0.000 OA
ENDROOT
TORSDOF 0
REMARK  Name = ../refined-set-2016/4ca5/4ca5_pocket.pdb
REMARK  300 active torsions:
REMARK  status: ('A' for Active; 'I' for Inactive)
REMARK    1  A    between atoms: _1  and  _3
REMARK    2  A    between atoms: _3  and  _4
REMARK    3  A    between atoms: _3  and  _6
REMARK    4  A    between atoms: _6  and  _7
REMARK    5  A    between atoms: _12  and  _14
REMARK    6  A    between atoms: _14  and  _15
REMARK    7  A    between atoms: _14  and  _17
REMARK    8  A    between atoms: _17  and  _18
REMARK    9  A    between atoms: _23  and  _25
REMARK   10  A    between atoms: _25  and  _26
REMARK   11  A    between atoms: _25  and  _28
REMARK   12  A    between atoms: _28  and  _29
REMARK   13  A    between atoms: _29  and  _30
REMARK   14  A    between atoms: _33  and  _35
REMARK   15  A    between atoms: _35  and  _36
REMARK   16  A    between atoms: _35  and  _38
REMARK   17  A    between atoms: _38  and  _39
REMARK   18  A    between atoms: _44  and  _45
REMARK   19  A    between atoms: _47  and  _49
REMARK   20  A    between atoms: _49  and  _50
REMARK   21  A    between atoms: _49  and  _52
REMARK   22  A    between atoms: _52  and  _53
REMARK   23  A    between atoms: _53  and  _54
REMARK   24  A    between atoms: _57  and  _59
REMARK   25  A    between atoms: _59  and  _60
REMARK   26  A    between atoms: _59  and  _62
REMARK   27  A    between atoms: _62  and  _63
REMARK   28  A    between atoms: _66  and  _68
REMARK   29  A    between atoms: _68  and  _69
REMARK   30  A    between atoms: _71  and  _73
REMARK   31  A    between atoms: _73  and  _74
REMARK   32  A    between atoms: _73  and  _76
REMARK   33  A    between atoms: _76  and  _77
REMARK   34  A    between atoms: _82  and  _84
REMARK   35  A    between atoms: _84  and  _85
REMARK   36  A    between atoms: _84  and  _87
REMARK   37  A    between atoms: _87  and  _88
REMARK   38  A    between atoms: _88  and  _89
REMARK   39  A    between atoms: _91  and  _93
REMARK   40  A    between atoms: _93  and  _94
REMARK   41  A    between atoms: _93  and  _96
REMARK   42  A    between atoms: _96  and  _97
REMARK   43  A    between atoms: _107  and  _109
REMARK   44  A    between atoms: _109  and  _110
REMARK   45  A    between atoms: _109  and  _112
REMARK   46  A    between atoms: _112  and  _113
REMARK   47  A    between atoms: _113  and  _114
REMARK   48  A    between atoms: _119  and  _121
REMARK   49  A    between atoms: _121  and  _122
REMARK   50  A    between atoms: _121  and  _124
REMARK   51  A    between atoms: _124  and  _125
REMARK   52  A    between atoms: _128  and  _130
REMARK   53  A    between atoms: _130  and  _131
REMARK   54  A    between atoms: _130  and  _133
REMARK   55  A    between atoms: _133  and  _134
REMARK   56  A    between atoms: _144  and  _146
REMARK   57  A    between atoms: _146  and  _147
REMARK   58  A    between atoms: _146  and  _149
REMARK   59  A    between atoms: _149  and  _150
REMARK   60  A    between atoms: _152  and  _154
REMARK   61  A    between atoms: _154  and  _155
REMARK   62  A    between atoms: _154  and  _157
REMARK   63  A    between atoms: _157  and  _158
REMARK   64  A    between atoms: _163  and  _165
REMARK   65  A    between atoms: _165  and  _166
REMARK   66  A    between atoms: _165  and  _168
REMARK   67  A    between atoms: _171  and  _173
REMARK   68  A    between atoms: _173  and  _174
REMARK   69  A    between atoms: _173  and  _176
REMARK   70  A    between atoms: _178  and  _180
REMARK   71  A    between atoms: _180  and  _181
REMARK   72  A    between atoms: _180  and  _183
REMARK   73  A    between atoms: _183  and  _184
REMARK   74  A    between atoms: _189  and  _191
REMARK   75  A    between atoms: _191  and  _192
REMARK   76  A    between atoms: _195  and  _197
REMARK   77  A    between atoms: _197  and  _198
REMARK   78  A    between atoms: _197  and  _200
REMARK   79  A    between atoms: _200  and  _201
REMARK   80  A    between atoms: _203  and  _205
REMARK   81  A    between atoms: _205  and  _206
REMARK   82  A    between atoms: _209  and  _211
REMARK   83  A    between atoms: _211  and  _212
REMARK   84  A    between atoms: _211  and  _214
REMARK   85  A    between atoms: _214  and  _215
REMARK   86  A    between atoms: _225  and  _227
REMARK   87  A    between atoms: _227  and  _228
REMARK   88  A    between atoms: _227  and  _230
REMARK   89  A    between atoms: _230  and  _231
REMARK   90  A    between atoms: _234  and  _236
REMARK   91  A    between atoms: _236  and  _237
REMARK   92  A    between atoms: _236  and  _239
REMARK   93  A    between atoms: _239  and  _240
REMARK   94  A    between atoms: _245  and  _246
REMARK   95  A    between atoms: _248  and  _250
REMARK   96  A    between atoms: _250  and  _251
REMARK   97  A    between atoms: _250  and  _253
REMARK   98  A    between atoms: _253  and  _254
REMARK   99  A    between atoms: _254  and  _255
REMARK  100  A    between atoms: _255  and  _256
REMARK  101  A    between atoms: _265  and  _267
REMARK  102  A    between atoms: _267  and  _268
REMARK  103  A    between atoms: _267  and  _270
REMARK  104  A    between atoms: _270  and  _271
REMARK  105  A    between atoms: _274  and  _276
REMARK  106  A    between atoms: _276  and  _277
REMARK  107  A    between atoms: _276  and  _279
REMARK  108  A    between atoms: _279  and  _280
REMARK  109  A    between atoms: _280  and  _281
REMARK  110  A    between atoms: _281  and  _282
REMARK  111  A    between atoms: _282  and  _283
REMARK  112  A    between atoms: _287  and  _289
REMARK  113  A    between atoms: _289  and  _290
REMARK  114  A    between atoms: _289  and  _292
REMARK  115  A    between atoms: _292  and  _293
REMARK  116  A    between atoms: _293  and  _294
REMARK  117  A    between atoms: _299  and  _301
REMARK  118  A    between atoms: _301  and  _302
REMARK  119  A    between atoms: _301  and  _304
REMARK  120  A    between atoms: _304  and  _305
REMARK  121  A    between atoms: _310  and  _312
REMARK  122  A    between atoms: _312  and  _313
REMARK  123  A    between atoms: _312  and  _315
REMARK  124  A    between atoms: _315  and  _316
REMARK  125  A    between atoms: _319  and  _321
REMARK  126  A    between atoms: _321  and  _322
REMARK  127  A    between atoms: _321  and  _324
REMARK  128  A    between atoms: _324  and  _325
REMARK  129  A    between atoms: _325  and  _326
REMARK  130  A    between atoms: _329  and  _331
REMARK  131  A    between atoms: _331  and  _332
REMARK  132  A    between atoms: _331  and  _334
REMARK  133  A    between atoms: _334  and  _335
REMARK  134  A    between atoms: _338  and  _340
REMARK  135  A    between atoms: _340  and  _341
REMARK  136  A    between atoms: _340  and  _343
REMARK  137  A    between atoms: _346  and  _348
REMARK  138  A    between atoms: _348  and  _349
REMARK  139  A    between atoms: _348  and  _351
REMARK  140  A    between atoms: _354  and  _356
REMARK  141  A    between atoms: _356  and  _357
REMARK  142  A    between atoms: _360  and  _362
REMARK  143  A    between atoms: _362  and  _363
REMARK  144  A    between atoms: _362  and  _365
REMARK  145  A    between atoms: _365  and  _366
REMARK  146  A    between atoms: _371  and  _373
REMARK  147  A    between atoms: _384  and  _387
REMARK  148  A    between atoms: _387  and  _388
REMARK  149  A    between atoms: _388  and  _389
REMARK  150  A    between atoms: _394  and  _397
REMARK  151  A    between atoms: _397  and  _398
REMARK  152  A    between atoms: _398  and  _399
REMARK  153  A    between atoms: _408  and  _409
REMARK  154  A    between atoms: _417  and  _419
REMARK  155  A    between atoms: _419  and  _420
REMARK  156  A    between atoms: _419  and  _422
REMARK  157  A    between atoms: _422  and  _423
REMARK  158  A    between atoms: _426  and  _428
REMARK  159  A    between atoms: _428  and  _429
REMARK  160  A    between atoms: _428  and  _431
REMARK  161  A    between atoms: _431  and  _432
REMARK  162  A    between atoms: _437  and  _438
REMARK  163  A    between atoms: _440  and  _442
REMARK  164  A    between atoms: _442  and  _443
REMARK  165  A    between atoms: _442  and  _445
REMARK  166  A    between atoms: _445  and  _446
REMARK  167  A    between atoms: _452  and  _454
REMARK  168  A    between atoms: _454  and  _455
REMARK  169  A    between atoms: _454  and  _457
REMARK  170  A    between atoms: _457  and  _458
REMARK  171  A    between atoms: _463  and  _464
REMARK  172  A    between atoms: _466  and  _468
REMARK  173  A    between atoms: _468  and  _469
REMARK  174  A    between atoms: _468  and  _471
REMARK  175  A    between atoms: _471  and  _472
REMARK  176  A    between atoms: _472  and  _473
REMARK  177  A    between atoms: _473  and  _474
REMARK  178  A    between atoms: _483  and  _485
REMARK  179  A    between atoms: _485  and  _486
REMARK  180  A    between atoms: _485  and  _488
REMARK  181  A    between atoms: _488  and  _489
REMARK  182  A    between atoms: _489  and  _490
REMARK  183  A    between atoms: _493  and  _495
REMARK  184  A    between atoms: _495  and  _496
REMARK  185  A    between atoms: _498  and  _500
REMARK  186  A    between atoms: _500  and  _501
REMARK  187  A    between atoms: _500  and  _503
REMARK  188  A    between atoms: _503  and  _504
REMARK  189  A    between atoms: _510  and  _511
REMARK  190  A    between atoms: _516  and  _518
REMARK  191  A    between atoms: _518  and  _519
REMARK  192  A    between atoms: _521  and  _523
REMARK  193  A    between atoms: _523  and  _524
REMARK  194  A    between atoms: _523  and  _526
REMARK  195  A    between atoms: _526  and  _527
REMARK  196  A    between atoms: _533  and  _535
REMARK  197  A    between atoms: _535  and  _536
REMARK  198  A    between atoms: _535  and  _538
REMARK  199  A    between atoms: _538  and  _539
REMARK  200  A    between atoms: _544  and  _546
REMARK  201  A    between atoms: _546  and  _547
REMARK  202  A    between atoms: _546  and  _549
REMARK  203  A    between atoms: _549  and  _550
REMARK  204  A    between atoms: _550  and  _551
REMARK  205  A    between atoms: _551  and  _552
REMARK  206  A    between atoms: _552  and  ZN_793
REMARK  207  A    between atoms: _554  and  _556
REMARK  208  A    between atoms: _556  and  _557
REMARK  209  A    between atoms: _560  and  _562
REMARK  210  A    between atoms: _562  and  _563
REMARK  211  A    between atoms: _562  and  _565
REMARK  212  A    between atoms: _565  and  _566
REMARK  213  A    between atoms: _569  and  _571
REMARK  214  A    between atoms: _571  and  _572
REMARK  215  A    between atoms: _575  and  _577
REMARK  216  A    between atoms: _577  and  _578
REMARK  217  A    between atoms: _577  and  _580
REMARK  218  A    between atoms: _580  and  _581
REMARK  219  A    between atoms: _584  and  _586
REMARK  220  A    between atoms: _586  and  _587
REMARK  221  A    between atoms: _586  and  _589
REMARK  222  A    between atoms: _589  and  _590
REMARK  223  A    between atoms: _590  and  _591
REMARK  224  A    between atoms: _591  and  _592
REMARK  225  A    between atoms: _592  and  _593
REMARK  226  A    between atoms: _597  and  _599
REMARK  227  A    between atoms: _599  and  _600
REMARK  228  A    between atoms: _599  and  _602
REMARK  229  A    between atoms: _602  and  _603
REMARK  230  A    between atoms: _609  and  _611
REMARK  231  A    between atoms: _611  and  _612
REMARK  232  A    between atoms: _611  and  _614
REMARK  233  A    between atoms: _614  and  _615
REMARK  234  A    between atoms: _621  and  _623
REMARK  235  A    between atoms: _623  and  _624
REMARK  236  A    between atoms: _623  and  _626
REMARK  237  A    between atoms: _626  and  _627
REMARK  238  A    between atoms: _629  and  _631
REMARK  239  A    between atoms: _631  and  _632
REMARK  240  A    between atoms: _631  and  _634
REMARK  241  A    between atoms: _637  and  _639
REMARK  242  A    between atoms: _639  and  _640
REMARK  243  A    between atoms: _639  and  _642
REMARK  244  A    between atoms: _642  and  _643
REMARK  245  A    between atoms: _643  and  _644
REMARK  246  A    between atoms: _644  and  _645
REMARK  247  A    between atoms: _645  and  _646
REMARK  248  A    between atoms: _650  and  _652
REMARK  249  A    between atoms: _652  and  _653
REMARK  250  A    between atoms: _652  and  _655
REMARK  251  A    between atoms: _655  and  _656
REMARK  252  A    between atoms: _662  and  _664
REMARK  253  A    between atoms: _664  and  _665
REMARK  254  A    between atoms: _664  and  _667
REMARK  255  A    between atoms: _667  and  _668
REMARK  256  A    between atoms: _673  and  _675
REMARK  257  A    between atoms: _675  and  _676
REMARK  258  A    between atoms: _675  and  _678
REMARK  259  A    between atoms: _678  and  _679
REMARK  260  A    between atoms: _681  and  _683
REMARK  261  A    between atoms: _683  and  _684
REMARK  262  A    between atoms: _683  and  _686
REMARK  263  A    between atoms: _686  and  _687
REMARK  264  A    between atoms: _689  and  _691
REMARK  265  A    between atoms: _691  and  _692
REMARK  266  A    between atoms: _691  and  _694
REMARK  267  A    between atoms: _698  and  _699
REMARK  268  A    between atoms: _704  and  _706
REMARK  269  A    between atoms: _706  and  _707
REMARK  270  A    between atoms: _706  and  _709
REMARK  271  A    between atoms: _709  and  _710
REMARK  272  A    between atoms: _715  and  _716
REMARK  273  A    between atoms: _718  and  _720
REMARK  274  A    between atoms: _720  and  _721
REMARK  275  A    between atoms: _720  and  _723
REMARK  276  A    between atoms: _723  and  _724
REMARK  277  A    between atoms: _724  and  _725
REMARK  278  A    between atoms: _725  and  _726
REMARK  279  A    between atoms: _735  and  _737
REMARK  280  A    between atoms: _737  and  _738
REMARK  281  A    between atoms: _737  and  _740
REMARK  282  A    between atoms: _740  and  _741
REMARK  283  A    between atoms: _746  and  _747
REMARK  284  A    between atoms: _749  and  _751
REMARK  285  A    between atoms: _751  and  _752
REMARK  286  A    between atoms: _751  and  _754
REMARK  287  A    between atoms: _754  and  _755
REMARK  288  A    between atoms: _761  and  _763
REMARK  289  A    between atoms: _763  and  _764
REMARK  290  A    between atoms: _763  and  _766
REMARK  291  A    between atoms: _766  and  _767
REMARK  292  A    between atoms: _769  and  _771
REMARK  293  A    between atoms: _771  and  _772
REMARK  294  A    between atoms: _771  and  _774
REMARK  295  A    between atoms: _774  and  _775
REMARK  296  A    between atoms: _781  and  _783
REMARK  297  A    between atoms: _783  and  _784
REMARK  298  A    between atoms: _783  and  _786
REMARK  299  A    between atoms: _786  and  _787
REMARK  300  A    between atoms: _787  and  _788
REMARK                            x       y       z     vdW  Elec       q    Type
REMARK                         _______ _______ _______ _____ _____    ______ ____
ROOT
ATOM      1  O   HOH     1      22.566  -5.892 -29.024  0.00  0.00    +0.000 OA
ENDROOT
TORSDOF 0
REMARK  Name = ../refined-set-2016/4ca5/4ca5_pocket.pdb
REMARK  300 active torsions:
REMARK  status: ('A' for Active; 'I' for Inactive)
REMARK    1  A    between atoms: _1  and  _3
REMARK    2  A    between atoms: _3  and  _4
REMARK    3  A    between atoms: _3  and  _6
REMARK    4  A    between atoms: _6  and  _7
REMARK    5  A    between atoms: _12  and  _14
REMARK    6  A    between atoms: _14  and  _15
REMARK    7  A    between atoms: _14  and  _17
REMARK    8  A    between atoms: _17  and  _18
REMARK    9  A    between atoms: _23  and  _25
REMARK   10  A    between atoms: _25  and  _26
REMARK   11  A    between atoms: _25  and  _28
REMARK   12  A    between atoms: _28  and  _29
REMARK   13  A    between atoms: _29  and  _30
REMARK   14  A    between atoms: _33  and  _35
REMARK   15  A    between atoms: _35  and  _36
REMARK   16  A    between atoms: _35  and  _38
REMARK   17  A    between atoms: _38  and  _39
REMARK   18  A    between atoms: _44  and  _45
REMARK   19  A    between atoms: _47  and  _49
REMARK   20  A    between atoms: _49  and  _50
REMARK   21  A    between atoms: _49  and  _52
REMARK   22  A    between atoms: _52  and  _53
REMARK   23  A    between atoms: _53  and  _54
REMARK   24  A    between atoms: _57  and  _59
REMARK   25  A    between atoms: _59  and  _60
REMARK   26  A    between atoms: _59  and  _62
REMARK   27  A    between atoms: _62  and  _63
REMARK   28  A    between atoms: _66  and  _68
REMARK   29  A    between atoms: _68  and  _69
REMARK   30  A    between atoms: _71  and  _73
REMARK   31  A    between atoms: _73  and  _74
REMARK   32  A    between atoms: _73  and  _76
REMARK   33  A    between atoms: _76  and  _77
REMARK   34  A    between atoms: _82  and  _84
REMARK   35  A    between atoms: _84  and  _85
REMARK   36  A    between atoms: _84  and  _87
REMARK   37  A    between atoms: _87  and  _88
REMARK   38  A    between atoms: _88  and  _89
REMARK   39  A    between atoms: _91  and  _93
REMARK   40  A    between atoms: _93  and  _94
REMARK   41  A    between atoms: _93  and  _96
REMARK   42  A    between atoms: _96  and  _97
REMARK   43  A    between atoms: _107  and  _109
REMARK   44  A    between atoms: _109  and  _110
REMARK   45  A    between atoms: _109  and  _112
REMARK   46  A    between atoms: _112  and  _113
REMARK   47  A    between atoms: _113  and  _114
REMARK   48  A    between atoms: _119  and  _121
REMARK   49  A    between atoms: _121  and  _122
REMARK   50  A    between atoms: _121  and  _124
REMARK   51  A    between atoms: _124  and  _125
REMARK   52  A    between atoms: _128  and  _130
REMARK   53  A    between atoms: _130  and  _131
REMARK   54  A    between atoms: _130  and  _133
REMARK   55  A    between atoms: _133  and  _134
REMARK   56  A    between atoms: _144  and  _146
REMARK   57  A    between atoms: _146  and  _147
REMARK   58  A    between atoms: _146  and  _149
REMARK   59  A    between atoms: _149  and  _150
REMARK   60  A    between atoms: _152  and  _154
REMARK   61  A    between atoms: _154  and  _155
REMARK   62  A    between atoms: _154  and  _157
REMARK   63  A    between atoms: _157  and  _158
REMARK   64  A    between atoms: _163  and  _165
REMARK   65  A    between atoms: _165  and  _166
REMARK   66  A    between atoms: _165  and  _168
REMARK   67  A    between atoms: _171  and  _173
REMARK   68  A    between atoms: _173  and  _174
REMARK   69  A    between atoms: _173  and  _176
REMARK   70  A    between atoms: _178  and  _180
REMARK   71  A    between atoms: _180  and  _181
REMARK   72  A    between atoms: _180  and  _183
REMARK   73  A    between atoms: _183  and  _184
REMARK   74  A    between atoms: _189  and  _191
REMARK   75  A    between atoms: _191  and  _192
REMARK   76  A    between atoms: _195  and  _197
REMARK   77  A    between atoms: _197  and  _198
REMARK   78  A    between atoms: _197  and  _200
REMARK   79  A    between atoms: _200  and  _201
REMARK   80  A    between atoms: _203  and  _205
REMARK   81  A    between atoms: _205  and  _206
REMARK   82  A    between atoms: _209  and  _211
REMARK   83  A    between atoms: _211  and  _212
REMARK   84  A    between atoms: _211  and  _214
REMARK   85  A    between atoms: _214  and  _215
REMARK   86  A    between atoms: _225  and  _227
REMARK   87  A    between atoms: _227  and  _228
REMARK   88  A    between atoms: _227  and  _230
REMARK   89  A    between atoms: _230  and  _231
REMARK   90  A    between atoms: _234  and  _236
REMARK   91  A    between atoms: _236  and  _237
REMARK   92  A    between atoms: _236  and  _239
REMARK   93  A    between atoms: _239  and  _240
REMARK   94  A    between atoms: _245  and  _246
REMARK   95  A    between atoms: _248  and  _250
REMARK   96  A    between atoms: _250  and  _251
REMARK   97  A    between atoms: _250  and  _253
REMARK   98  A    between atoms: _253  and  _254
REMARK   99  A    between atoms: _254  and  _255
REMARK  100  A    between atoms: _255  and  _256
REMARK  101  A    between atoms: _265  and  _267
REMARK  102  A    between atoms: _267  and  _268
REMARK  103  A    between atoms: _267  and  _270
REMARK  104  A    between atoms: _270  and  _271
REMARK  105  A    between atoms: _274  and  _276
REMARK  106  A    between atoms: _276  and  _277
REMARK  107  A    between atoms: _276  and  _279
REMARK  108  A    between atoms: _279  and  _280
REMARK  109  A    between atoms: _280  and  _281
REMARK  110  A    between atoms: _281  and  _282
REMARK  111  A    between atoms: _282  and  _283
REMARK  112  A    between atoms: _287  and  _289
REMARK  113  A    between atoms: _289  and  _290
REMARK  114  A    between atoms: _289  and  _292
REMARK  115  A    between atoms: _292  and  _293
REMARK  116  A    between atoms: _293  and  _294
REMARK  117  A    between atoms: _299  and  _301
REMARK  118  A    between atoms: _301  and  _302
REMARK  119  A    between atoms: _301  and  _304
REMARK  120  A    between atoms: _304  and  _305
REMARK  121  A    between atoms: _310  and  _312
REMARK  122  A    between atoms: _312  and  _313
REMARK  123  A    between atoms: _312  and  _315
REMARK  124  A    between atoms: _315  and  _316
REMARK  125  A    between atoms: _319  and  _321
REMARK  126  A    between atoms: _321  and  _322
REMARK  127  A    between atoms: _321  and  _324
REMARK  128  A    between atoms: _324  and  _325
REMARK  129  A    between atoms: _325  and  _326
REMARK  130  A    between atoms: _329  and  _331
REMARK  131  A    between atoms: _331  and  _332
REMARK  132  A    between atoms: _331  and  _334
REMARK  133  A    between atoms: _334  and  _335
REMARK  134  A    between atoms: _338  and  _340
REMARK  135  A    between atoms: _340  and  _341
REMARK  136  A    between atoms: _340  and  _343
REMARK  137  A    between atoms: _346  and  _348
REMARK  138  A    between atoms: _348  and  _349
REMARK  139  A    between atoms: _348  and  _351
REMARK  140  A    between atoms: _354  and  _356
REMARK  141  A    between atoms: _356  and  _357
REMARK  142  A    between atoms: _360  and  _362
REMARK  143  A    between atoms: _362  and  _363
REMARK  144  A    between atoms: _362  and  _365
REMARK  145  A    between atoms: _365  and  _366
REMARK  146  A    between atoms: _371  and  _373
REMARK  147  A    between atoms: _384  and  _387
REMARK  148  A    between atoms: _387  and  _388
REMARK  149  A    between atoms: _388  and  _389
REMARK  150  A    between atoms: _394  and  _397
REMARK  151  A    between atoms: _397  and  _398
REMARK  152  A    between atoms: _398  and  _399
REMARK  153  A    between atoms: _408  and  _409
REMARK  154  A    between atoms: _417  and  _419
REMARK  155  A    between atoms: _419  and  _420
REMARK  156  A    between atoms: _419  and  _422
REMARK  157  A    between atoms: _422  and  _423
REMARK  158  A    between atoms: _426  and  _428
REMARK  159  A    between atoms: _428  and  _429
REMARK  160  A    between atoms: _428  and  _431
REMARK  161  A    between atoms: _431  and  _432
REMARK  162  A    between atoms: _437  and  _438
REMARK  163  A    between atoms: _440  and  _442
REMARK  164  A    between atoms: _442  and  _443
REMARK  165  A    between atoms: _442  and  _445
REMARK  166  A    between atoms: _445  and  _446
REMARK  167  A    between atoms: _452  and  _454
REMARK  168  A    between atoms: _454  and  _455
REMARK  169  A    between atoms: _454  and  _457
REMARK  170  A    between atoms: _457  and  _458
REMARK  171  A    between atoms: _463  and  _464
REMARK  172  A    between atoms: _466  and  _468
REMARK  173  A    between atoms: _468  and  _469
REMARK  174  A    between atoms: _468  and  _471
REMARK  175  A    between atoms: _471  and  _472
REMARK  176  A    between atoms: _472  and  _473
REMARK  177  A    between atoms: _473  and  _474
REMARK  178  A    between atoms: _483  and  _485
REMARK  179  A    between atoms: _485  and  _486
REMARK  180  A    between atoms: _485  and  _488
REMARK  181  A    between atoms: _488  and  _489
REMARK  182  A    between atoms: _489  and  _490
REMARK  183  A    between atoms: _493  and  _495
REMARK  184  A    between atoms: _495  and  _496
REMARK  185  A    between atoms: _498  and  _500
REMARK  186  A    between atoms: _500  and  _501
REMARK  187  A    between atoms: _500  and  _503
REMARK  188  A    between atoms: _503  and  _504
REMARK  189  A    between atoms: _510  and  _511
REMARK  190  A    between atoms: _516  and  _518
REMARK  191  A    between atoms: _518  and  _519
REMARK  192  A    between atoms: _521  and  _523
REMARK  193  A    between atoms: _523  and  _524
REMARK  194  A    between atoms: _523  and  _526
REMARK  195  A    between atoms: _526  and  _527
REMARK  196  A    between atoms: _533  and  _535
REMARK  197  A    between atoms: _535  and  _536
REMARK  198  A    between atoms: _535  and  _538
REMARK  199  A    between atoms: _538  and  _539
REMARK  200  A    between atoms: _544  and  _546
REMARK  201  A    between atoms: _546  and  _547
REMARK  202  A    between atoms: _546  and  _549
REMARK  203  A    between atoms: _549  and  _550
REMARK  204  A    between atoms: _550  and  _551
REMARK  205  A    between atoms: _551  and  _552
REMARK  206  A    between atoms: _552  and  ZN_793
REMARK  207  A    between atoms: _554  and  _556
REMARK  208  A    between atoms: _556  and  _557
REMARK  209  A    between atoms: _560  and  _562
REMARK  210  A    between atoms: _562  and  _563
REMARK  211  A    between atoms: _562  and  _565
REMARK  212  A    between atoms: _565  and  _566
REMARK  213  A    between atoms: _569  and  _571
REMARK  214  A    between atoms: _571  and  _572
REMARK  215  A    between atoms: _575  and  _577
REMARK  216  A    between atoms: _577  and  _578
REMARK  217  A    between atoms: _577  and  _580
REMARK  218  A    between atoms: _580  and  _581
REMARK  219  A    between atoms: _584  and  _586
REMARK  220  A    between atoms: _586  and  _587
REMARK  221  A    between atoms: _586  and  _589
REMARK  222  A    between atoms: _589  and  _590
REMARK  223  A    between atoms: _590  and  _591
REMARK  224  A    between atoms: _591  and  _592
REMARK  225  A    between atoms: _592  and  _593
REMARK  226  A    between atoms: _597  and  _599
REMARK  227  A    between atoms: _599  and  _600
REMARK  228  A    between atoms: _599  and  _602
REMARK  229  A    between atoms: _602  and  _603
REMARK  230  A    between atoms: _609  and  _611
REMARK  231  A    between atoms: _611  and  _612
REMARK  232  A    between atoms: _611  and  _614
REMARK  233  A    between atoms: _614  and  _615
REMARK  234  A    between atoms: _621  and  _623
REMARK  235  A    between atoms: _623  and  _624
REMARK  236  A    between atoms: _623  and  _626
REMARK  237  A    between atoms: _626  and  _627
REMARK  238  A    between atoms: _629  and  _631
REMARK  239  A    between atoms: _631  and  _632
REMARK  240  A    between atoms: _631  and  _634
REMARK  241  A    between atoms: _637  and  _639
REMARK  242  A    between atoms: _639  and  _640
REMARK  243  A    between atoms: _639  and  _642
REMARK  244  A    between atoms: _642  and  _643
REMARK  245  A    between atoms: _643  and  _644
REMARK  246  A    between atoms: _644  and  _645
REMARK  247  A    between atoms: _645  and  _646
REMARK  248  A    between atoms: _650  and  _652
REMARK  249  A    between atoms: _652  and  _653
REMARK  250  A    between atoms: _652  and  _655
REMARK  251  A    between atoms: _655  and  _656
REMARK  252  A    between atoms: _662  and  _664
REMARK  253  A    between atoms: _664  and  _665
REMARK  254  A    between atoms: _664  and  _667
REMARK  255  A    between atoms: _667  and  _668
REMARK  256  A    between atoms: _673  and  _675
REMARK  257  A    between atoms: _675  and  _676
REMARK  258  A    between atoms: _675  and  _678
REMARK  259  A    between atoms: _678  and  _679
REMARK  260  A    between atoms: _681  and  _683
REMARK  261  A    between atoms: _683  and  _684
REMARK  262  A    between atoms: _683  and  _686
REMARK  263  A    between atoms: _686  and  _687
REMARK  264  A    between atoms: _689  and  _691
REMARK  265  A    between atoms: _691  and  _692
REMARK  266  A    between atoms: _691  and  _694
REMARK  267  A    between atoms: _698  and  _699
REMARK  268  A    between atoms: _704  and  _706
REMARK  269  A    between atoms: _706  and  _707
REMARK  270  A    between atoms: _706  and  _709
REMARK  271  A    between atoms: _709  and  _710
REMARK  272  A    between atoms: _715  and  _716
REMARK  273  A    between atoms: _718  and  _720
REMARK  274  A    between atoms: _720  and  _721
REMARK  275  A    between atoms: _720  and  _723
REMARK  276  A    between atoms: _723  and  _724
REMARK  277  A    between atoms: _724  and  _725
REMARK  278  A    between atoms: _725  and  _726
REMARK  279  A    between atoms: _735  and  _737
REMARK  280  A    between atoms: _737  and  _738
REMARK  281  A    between atoms: _737  and  _740
REMARK  282  A    between atoms: _740  and  _741
REMARK  283  A    between atoms: _746  and  _747
REMARK  284  A    between atoms: _749  and  _751
REMARK  285  A    between atoms: _751  and  _752
REMARK  286  A    between atoms: _751  and  _754
REMARK  287  A    between atoms: _754  and  _755
REMARK  288  A    between atoms: _761  and  _763
REMARK  289  A    between atoms: _763  and  _764
REMARK  290  A    between atoms: _763  and  _766
REMARK  291  A    between atoms: _766  and  _767
REMARK  292  A    between atoms: _769  and  _771
REMARK  293  A    between atoms: _771  and  _772
REMARK  294  A    between atoms: _771  and  _774
REMARK  295  A    between atoms: _774  and  _775
REMARK  296  A    between atoms: _781  and  _783
REMARK  297  A    between atoms: _783  and  _784
REMARK  298  A    between atoms: _783  and  _786
REMARK  299  A    between atoms: _786  and  _787
REMARK  300  A    between atoms: _787  and  _788
REMARK                            x       y       z     vdW  Elec       q    Type
REMARK                         _______ _______ _______ _____ _____    ______ ____
ROOT
ATOM      1  O   HOH     1      23.878  -7.942 -30.349  0.00  0.00    +0.000 OA
ENDROOT
TORSDOF 0
REMARK  Name = ../refined-set-2016/4ca5/4ca5_pocket.pdb
REMARK  300 active torsions:
REMARK  status: ('A' for Active; 'I' for Inactive)
REMARK    1  A    between atoms: _1  and  _3
REMARK    2  A    between atoms: _3  and  _4
REMARK    3  A    between atoms: _3  and  _6
REMARK    4  A    between atoms: _6  and  _7
REMARK    5  A    between atoms: _12  and  _14
REMARK    6  A    between atoms: _14  and  _15
REMARK    7  A    between atoms: _14  and  _17
REMARK    8  A    between atoms: _17  and  _18
REMARK    9  A    between atoms: _23  and  _25
REMARK   10  A    between atoms: _25  and  _26
REMARK   11  A    between atoms: _25  and  _28
REMARK   12  A    between atoms: _28  and  _29
REMARK   13  A    between atoms: _29  and  _30
REMARK   14  A    between atoms: _33  and  _35
REMARK   15  A    between atoms: _35  and  _36
REMARK   16  A    between atoms: _35  and  _38
REMARK   17  A    between atoms: _38  and  _39
REMARK   18  A    between atoms: _44  and  _45
REMARK   19  A    between atoms: _47  and  _49
REMARK   20  A    between atoms: _49  and  _50
REMARK   21  A    between atoms: _49  and  _52
REMARK   22  A    between atoms: _52  and  _53
REMARK   23  A    between atoms: _53  and  _54
REMARK   24  A    between atoms: _57  and  _59
REMARK   25  A    between atoms: _59  and  _60
REMARK   26  A    between atoms: _59  and  _62
REMARK   27  A    between atoms: _62  and  _63
REMARK   28  A    between atoms: _66  and  _68
REMARK   29  A    between atoms: _68  and  _69
REMARK   30  A    between atoms: _71  and  _73
REMARK   31  A    between atoms: _73  and  _74
REMARK   32  A    between atoms: _73  and  _76
REMARK   33  A    between atoms: _76  and  _77
REMARK   34  A    between atoms: _82  and  _84
REMARK   35  A    between atoms: _84  and  _85
REMARK   36  A    between atoms: _84  and  _87
REMARK   37  A    between atoms: _87  and  _88
REMARK   38  A    between atoms: _88  and  _89
REMARK   39  A    between atoms: _91  and  _93
REMARK   40  A    between atoms: _93  and  _94
REMARK   41  A    between atoms: _93  and  _96
REMARK   42  A    between atoms: _96  and  _97
REMARK   43  A    between atoms: _107  and  _109
REMARK   44  A    between atoms: _109  and  _110
REMARK   45  A    between atoms: _109  and  _112
REMARK   46  A    between atoms: _112  and  _113
REMARK   47  A    between atoms: _113  and  _114
REMARK   48  A    between atoms: _119  and  _121
REMARK   49  A    between atoms: _121  and  _122
REMARK   50  A    between atoms: _121  and  _124
REMARK   51  A    between atoms: _124  and  _125
REMARK   52  A    between atoms: _128  and  _130
REMARK   53  A    between atoms: _130  and  _131
REMARK   54  A    between atoms: _130  and  _133
REMARK   55  A    between atoms: _133  and  _134
REMARK   56  A    between atoms: _144  and  _146
REMARK   57  A    between atoms: _146  and  _147
REMARK   58  A    between atoms: _146  and  _149
REMARK   59  A    between atoms: _149  and  _150
REMARK   60  A    between atoms: _152  and  _154
REMARK   61  A    between atoms: _154  and  _155
REMARK   62  A    between atoms: _154  and  _157
REMARK   63  A    between atoms: _157  and  _158
REMARK   64  A    between atoms: _163  and  _165
REMARK   65  A    between atoms: _165  and  _166
REMARK   66  A    between atoms: _165  and  _168
REMARK   67  A    between atoms: _171  and  _173
REMARK   68  A    between atoms: _173  and  _174
REMARK   69  A    between atoms: _173  and  _176
REMARK   70  A    between atoms: _178  and  _180
REMARK   71  A    between atoms: _180  and  _181
REMARK   72  A    between atoms: _180  and  _183
REMARK   73  A    between atoms: _183  and  _184
REMARK   74  A    between atoms: _189  and  _191
REMARK   75  A    between atoms: _191  and  _192
REMARK   76  A    between atoms: _195  and  _197
REMARK   77  A    between atoms: _197  and  _198
REMARK   78  A    between atoms: _197  and  _200
REMARK   79  A    between atoms: _200  and  _201
REMARK   80  A    between atoms: _203  and  _205
REMARK   81  A    between atoms: _205  and  _206
REMARK   82  A    between atoms: _209  and  _211
REMARK   83  A    between atoms: _211  and  _212
REMARK   84  A    between atoms: _211  and  _214
REMARK   85  A    between atoms: _214  and  _215
REMARK   86  A    between atoms: _225  and  _227
REMARK   87  A    between atoms: _227  and  _228
REMARK   88  A    between atoms: _227  and  _230
REMARK   89  A    between atoms: _230  and  _231
REMARK   90  A    between atoms: _234  and  _236
REMARK   91  A    between atoms: _236  and  _237
REMARK   92  A    between atoms: _236  and  _239
REMARK   93  A    between atoms: _239  and  _240
REMARK   94  A    between atoms: _245  and  _246
REMARK   95  A    between atoms: _248  and  _250
REMARK   96  A    between atoms: _250  and  _251
REMARK   97  A    between atoms: _250  and  _253
REMARK   98  A    between atoms: _253  and  _254
REMARK   99  A    between atoms: _254  and  _255
REMARK  100  A    between atoms: _255  and  _256
REMARK  101  A    between atoms: _265  and  _267
REMARK  102  A    between atoms: _267  and  _268
REMARK  103  A    between atoms: _267  and  _270
REMARK  104  A    between atoms: _270  and  _271
REMARK  105  A    between atoms: _274  and  _276
REMARK  106  A    between atoms: _276  and  _277
REMARK  107  A    between atoms: _276  and  _279
REMARK  108  A    between atoms: _279  and  _280
REMARK  109  A    between atoms: _280  and  _281
REMARK  110  A    between atoms: _281  and  _282
REMARK  111  A    between atoms: _282  and  _283
REMARK  112  A    between atoms: _287  and  _289
REMARK  113  A    between atoms: _289  and  _290
REMARK  114  A    between atoms: _289  and  _292
REMARK  115  A    between atoms: _292  and  _293
REMARK  116  A    between atoms: _293  and  _294
REMARK  117  A    between atoms: _299  and  _301
REMARK  118  A    between atoms: _301  and  _302
REMARK  119  A    between atoms: _301  and  _304
REMARK  120  A    between atoms: _304  and  _305
REMARK  121  A    between atoms: _310  and  _312
REMARK  122  A    between atoms: _312  and  _313
REMARK  123  A    between atoms: _312  and  _315
REMARK  124  A    between atoms: _315  and  _316
REMARK  125  A    between atoms: _319  and  _321
REMARK  126  A    between atoms: _321  and  _322
REMARK  127  A    between atoms: _321  and  _324
REMARK  128  A    between atoms: _324  and  _325
REMARK  129  A    between atoms: _325  and  _326
REMARK  130  A    between atoms: _329  and  _331
REMARK  131  A    between atoms: _331  and  _332
REMARK  132  A    between atoms: _331  and  _334
REMARK  133  A    between atoms: _334  and  _335
REMARK  134  A    between atoms: _338  and  _340
REMARK  135  A    between atoms: _340  and  _341
REMARK  136  A    between atoms: _340  and  _343
REMARK  137  A    between atoms: _346  and  _348
REMARK  138  A    between atoms: _348  and  _349
REMARK  139  A    between atoms: _348  and  _351
REMARK  140  A    between atoms: _354  and  _356
REMARK  141  A    between atoms: _356  and  _357
REMARK  142  A    between atoms: _360  and  _362
REMARK  143  A    between atoms: _362  and  _363
REMARK  144  A    between atoms: _362  and  _365
REMARK  145  A    between atoms: _365  and  _366
REMARK  146  A    between atoms: _371  and  _373
REMARK  147  A    between atoms: _384  and  _387
REMARK  148  A    between atoms: _387  and  _388
REMARK  149  A    between atoms: _388  and  _389
REMARK  150  A    between atoms: _394  and  _397
REMARK  151  A    between atoms: _397  and  _398
REMARK  152  A    between atoms: _398  and  _399
REMARK  153  A    between atoms: _408  and  _409
REMARK  154  A    between atoms: _417  and  _419
REMARK  155  A    between atoms: _419  and  _420
REMARK  156  A    between atoms: _419  and  _422
REMARK  157  A    between atoms: _422  and  _423
REMARK  158  A    between atoms: _426  and  _428
REMARK  159  A    between atoms: _428  and  _429
REMARK  160  A    between atoms: _428  and  _431
REMARK  161  A    between atoms: _431  and  _432
REMARK  162  A    between atoms: _437  and  _438
REMARK  163  A    between atoms: _440  and  _442
REMARK  164  A    between atoms: _442  and  _443
REMARK  165  A    between atoms: _442  and  _445
REMARK  166  A    between atoms: _445  and  _446
REMARK  167  A    between atoms: _452  and  _454
REMARK  168  A    between atoms: _454  and  _455
REMARK  169  A    between atoms: _454  and  _457
REMARK  170  A    between atoms: _457  and  _458
REMARK  171  A    between atoms: _463  and  _464
REMARK  172  A    between atoms: _466  and  _468
REMARK  173  A    between atoms: _468  and  _469
REMARK  174  A    between atoms: _468  and  _471
REMARK  175  A    between atoms: _471  and  _472
REMARK  176  A    between atoms: _472  and  _473
REMARK  177  A    between atoms: _473  and  _474
REMARK  178  A    between atoms: _483  and  _485
REMARK  179  A    between atoms: _485  and  _486
REMARK  180  A    between atoms: _485  and  _488
REMARK  181  A    between atoms: _488  and  _489
REMARK  182  A    between atoms: _489  and  _490
REMARK  183  A    between atoms: _493  and  _495
REMARK  184  A    between atoms: _495  and  _496
REMARK  185  A    between atoms: _498  and  _500
REMARK  186  A    between atoms: _500  and  _501
REMARK  187  A    between atoms: _500  and  _503
REMARK  188  A    between atoms: _503  and  _504
REMARK  189  A    between atoms: _510  and  _511
REMARK  190  A    between atoms: _516  and  _518
REMARK  191  A    between atoms: _518  and  _519
REMARK  192  A    between atoms: _521  and  _523
REMARK  193  A    between atoms: _523  and  _524
REMARK  194  A    between atoms: _523  and  _526
REMARK  195  A    between atoms: _526  and  _527
REMARK  196  A    between atoms: _533  and  _535
REMARK  197  A    between atoms: _535  and  _536
REMARK  198  A    between atoms: _535  and  _538
REMARK  199  A    between atoms: _538  and  _539
REMARK  200  A    between atoms: _544  and  _546
REMARK  201  A    between atoms: _546  and  _547
REMARK  202  A    between atoms: _546  and  _549
REMARK  203  A    between atoms: _549  and  _550
REMARK  204  A    between atoms: _550  and  _551
REMARK  205  A    between atoms: _551  and  _552
REMARK  206  A    between atoms: _552  and  ZN_793
REMARK  207  A    between atoms: _554  and  _556
REMARK  208  A    between atoms: _556  and  _557
REMARK  209  A    between atoms: _560  and  _562
REMARK  210  A    between atoms: _562  and  _563
REMARK  211  A    between atoms: _562  and  _565
REMARK  212  A    between atoms: _565  and  _566
REMARK  213  A    between atoms: _569  and  _571
REMARK  214  A    between atoms: _571  and  _572
REMARK  215  A    between atoms: _575  and  _577
REMARK  216  A    between atoms: _577  and  _578
REMARK  217  A    between atoms: _577  and  _580
REMARK  218  A    between atoms: _580  and  _581
REMARK  219  A    between atoms: _584  and  _586
REMARK  220  A    between atoms: _586  and  _587
REMARK  221  A    between atoms: _586  and  _589
REMARK  222  A    between atoms: _589  and  _590
REMARK  223  A    between atoms: _590  and  _591
REMARK  224  A    between atoms: _591  and  _592
REMARK  225  A    between atoms: _592  and  _593
REMARK  226  A    between atoms: _597  and  _599
REMARK  227  A    between atoms: _599  and  _600
REMARK  228  A    between atoms: _599  and  _602
REMARK  229  A    between atoms: _602  and  _603
REMARK  230  A    between atoms: _609  and  _611
REMARK  231  A    between atoms: _611  and  _612
REMARK  232  A    between atoms: _611  and  _614
REMARK  233  A    between atoms: _614  and  _615
REMARK  234  A    between atoms: _621  and  _623
REMARK  235  A    between atoms: _623  and  _624
REMARK  236  A    between atoms: _623  and  _626
REMARK  237  A    between atoms: _626  and  _627
REMARK  238  A    between atoms: _629  and  _631
REMARK  239  A    between atoms: _631  and  _632
REMARK  240  A    between atoms: _631  and  _634
REMARK  241  A    between atoms: _637  and  _639
REMARK  242  A    between atoms: _639  and  _640
REMARK  243  A    between atoms: _639  and  _642
REMARK  244  A    between atoms: _642  and  _643
REMARK  245  A    between atoms: _643  and  _644
REMARK  246  A    between atoms: _644  and  _645
REMARK  247  A    between atoms: _645  and  _646
REMARK  248  A    between atoms: _650  and  _652
REMARK  249  A    between atoms: _652  and  _653
REMARK  250  A    between atoms: _652  and  _655
REMARK  251  A    between atoms: _655  and  _656
REMARK  252  A    between atoms: _662  and  _664
REMARK  253  A    between atoms: _664  and  _665
REMARK  254  A    between atoms: _664  and  _667
REMARK  255  A    between atoms: _667  and  _668
REMARK  256  A    between atoms: _673  and  _675
REMARK  257  A    between atoms: _675  and  _676
REMARK  258  A    between atoms: _675  and  _678
REMARK  259  A    between atoms: _678  and  _679
REMARK  260  A    between atoms: _681  and  _683
REMARK  261  A    between atoms: _683  and  _684
REMARK  262  A    between atoms: _683  and  _686
REMARK  263  A    between atoms: _686  and  _687
REMARK  264  A    between atoms: _689  and  _691
REMARK  265  A    between atoms: _691  and  _692
REMARK  266  A    between atoms: _691  and  _694
REMARK  267  A    between atoms: _698  and  _699
REMARK  268  A    between atoms: _704  and  _706
REMARK  269  A    between atoms: _706  and  _707
REMARK  270  A    between atoms: _706  and  _709
REMARK  271  A    between atoms: _709  and  _710
REMARK  272  A    between atoms: _715  and  _716
REMARK  273  A    between atoms: _718  and  _720
REMARK  274  A    between atoms: _720  and  _721
REMARK  275  A    between atoms: _720  and  _723
REMARK  276  A    between atoms: _723  and  _724
REMARK  277  A    between atoms: _724  and  _725
REMARK  278  A    between atoms: _725  and  _726
REMARK  279  A    between atoms: _735  and  _737
REMARK  280  A    between atoms: _737  and  _738
REMARK  281  A    between atoms: _737  and  _740
REMARK  282  A    between atoms: _740  and  _741
REMARK  283  A    between atoms: _746  and  _747
REMARK  284  A    between atoms: _749  and  _751
REMARK  285  A    between atoms: _751  and  _752
REMARK  286  A    between atoms: _751  and  _754
REMARK  287  A    between atoms: _754  and  _755
REMARK  288  A    between atoms: _761  and  _763
REMARK  289  A    between atoms: _763  and  _764
REMARK  290  A    between atoms: _763  and  _766
REMARK  291  A    between atoms: _766  and  _767
REMARK  292  A    between atoms: _769  and  _771
REMARK  293  A    between atoms: _771  and  _772
REMARK  294  A    between atoms: _771  and  _774
REMARK  295  A    between atoms: _774  and  _775
REMARK  296  A    between atoms: _781  and  _783
REMARK  297  A    between atoms: _783  and  _784
REMARK  298  A    between atoms: _783  and  _786
REMARK  299  A    between atoms: _786  and  _787
REMARK  300  A    between atoms: _787  and  _788
REMARK                            x       y       z     vdW  Elec       q    Type
REMARK                         _______ _______ _______ _____ _____    ______ ____
ROOT
ATOM      1  O   HOH     1      21.539 -11.422 -33.991  0.00  0.00    +0.000 OA
ENDROOT
TORSDOF 0
REMARK  Name = ../refined-set-2016/4ca5/4ca5_pocket.pdb
REMARK  300 active torsions:
REMARK  status: ('A' for Active; 'I' for Inactive)
REMARK    1  A    between atoms: _1  and  _3
REMARK    2  A    between atoms: _3  and  _4
REMARK    3  A    between atoms: _3  and  _6
REMARK    4  A    between atoms: _6  and  _7
REMARK    5  A    between atoms: _12  and  _14
REMARK    6  A    between atoms: _14  and  _15
REMARK    7  A    between atoms: _14  and  _17
REMARK    8  A    between atoms: _17  and  _18
REMARK    9  A    between atoms: _23  and  _25
REMARK   10  A    between atoms: _25  and  _26
REMARK   11  A    between atoms: _25  and  _28
REMARK   12  A    between atoms: _28  and  _29
REMARK   13  A    between atoms: _29  and  _30
REMARK   14  A    between atoms: _33  and  _35
REMARK   15  A    between atoms: _35  and  _36
REMARK   16  A    between atoms: _35  and  _38
REMARK   17  A    between atoms: _38  and  _39
REMARK   18  A    between atoms: _44  and  _45
REMARK   19  A    between atoms: _47  and  _49
REMARK   20  A    between atoms: _49  and  _50
REMARK   21  A    between atoms: _49  and  _52
REMARK   22  A    between atoms: _52  and  _53
REMARK   23  A    between atoms: _53  and  _54
REMARK   24  A    between atoms: _57  and  _59
REMARK   25  A    between atoms: _59  and  _60
REMARK   26  A    between atoms: _59  and  _62
REMARK   27  A    between atoms: _62  and  _63
REMARK   28  A    between atoms: _66  and  _68
REMARK   29  A    between atoms: _68  and  _69
REMARK   30  A    between atoms: _71  and  _73
REMARK   31  A    between atoms: _73  and  _74
REMARK   32  A    between atoms: _73  and  _76
REMARK   33  A    between atoms: _76  and  _77
REMARK   34  A    between atoms: _82  and  _84
REMARK   35  A    between atoms: _84  and  _85
REMARK   36  A    between atoms: _84  and  _87
REMARK   37  A    between atoms: _87  and  _88
REMARK   38  A    between atoms: _88  and  _89
REMARK   39  A    between atoms: _91  and  _93
REMARK   40  A    between atoms: _93  and  _94
REMARK   41  A    between atoms: _93  and  _96
REMARK   42  A    between atoms: _96  and  _97
REMARK   43  A    between atoms: _107  and  _109
REMARK   44  A    between atoms: _109  and  _110
REMARK   45  A    between atoms: _109  and  _112
REMARK   46  A    between atoms: _112  and  _113
REMARK   47  A    between atoms: _113  and  _114
REMARK   48  A    between atoms: _119  and  _121
REMARK   49  A    between atoms: _121  and  _122
REMARK   50  A    between atoms: _121  and  _124
REMARK   51  A    between atoms: _124  and  _125
REMARK   52  A    between atoms: _128  and  _130
REMARK   53  A    between atoms: _130  and  _131
REMARK   54  A    between atoms: _130  and  _133
REMARK   55  A    between atoms: _133  and  _134
REMARK   56  A    between atoms: _144  and  _146
REMARK   57  A    between atoms: _146  and  _147
REMARK   58  A    between atoms: _146  and  _149
REMARK   59  A    between atoms: _149  and  _150
REMARK   60  A    between atoms: _152  and  _154
REMARK   61  A    between atoms: _154  and  _155
REMARK   62  A    between atoms: _154  and  _157
REMARK   63  A    between atoms: _157  and  _158
REMARK   64  A    between atoms: _163  and  _165
REMARK   65  A    between atoms: _165  and  _166
REMARK   66  A    between atoms: _165  and  _168
REMARK   67  A    between atoms: _171  and  _173
REMARK   68  A    between atoms: _173  and  _174
REMARK   69  A    between atoms: _173  and  _176
REMARK   70  A    between atoms: _178  and  _180
REMARK   71  A    between atoms: _180  and  _181
REMARK   72  A    between atoms: _180  and  _183
REMARK   73  A    between atoms: _183  and  _184
REMARK   74  A    between atoms: _189  and  _191
REMARK   75  A    between atoms: _191  and  _192
REMARK   76  A    between atoms: _195  and  _197
REMARK   77  A    between atoms: _197  and  _198
REMARK   78  A    between atoms: _197  and  _200
REMARK   79  A    between atoms: _200  and  _201
REMARK   80  A    between atoms: _203  and  _205
REMARK   81  A    between atoms: _205  and  _206
REMARK   82  A    between atoms: _209  and  _211
REMARK   83  A    between atoms: _211  and  _212
REMARK   84  A    between atoms: _211  and  _214
REMARK   85  A    between atoms: _214  and  _215
REMARK   86  A    between atoms: _225  and  _227
REMARK   87  A    between atoms: _227  and  _228
REMARK   88  A    between atoms: _227  and  _230
REMARK   89  A    between atoms: _230  and  _231
REMARK   90  A    between atoms: _234  and  _236
REMARK   91  A    between atoms: _236  and  _237
REMARK   92  A    between atoms: _236  and  _239
REMARK   93  A    between atoms: _239  and  _240
REMARK   94  A    between atoms: _245  and  _246
REMARK   95  A    between atoms: _248  and  _250
REMARK   96  A    between atoms: _250  and  _251
REMARK   97  A    between atoms: _250  and  _253
REMARK   98  A    between atoms: _253  and  _254
REMARK   99  A    between atoms: _254  and  _255
REMARK  100  A    between atoms: _255  and  _256
REMARK  101  A    between atoms: _265  and  _267
REMARK  102  A    between atoms: _267  and  _268
REMARK  103  A    between atoms: _267  and  _270
REMARK  104  A    between atoms: _270  and  _271
REMARK  105  A    between atoms: _274  and  _276
REMARK  106  A    between atoms: _276  and  _277
REMARK  107  A    between atoms: _276  and  _279
REMARK  108  A    between atoms: _279  and  _280
REMARK  109  A    between atoms: _280  and  _281
REMARK  110  A    between atoms: _281  and  _282
REMARK  111  A    between atoms: _282  and  _283
REMARK  112  A    between atoms: _287  and  _289
REMARK  113  A    between atoms: _289  and  _290
REMARK  114  A    between atoms: _289  and  _292
REMARK  115  A    between atoms: _292  and  _293
REMARK  116  A    between atoms: _293  and  _294
REMARK  117  A    between atoms: _299  and  _301
REMARK  118  A    between atoms: _301  and  _302
REMARK  119  A    between atoms: _301  and  _304
REMARK  120  A    between atoms: _304  and  _305
REMARK  121  A    between atoms: _310  and  _312
REMARK  122  A    between atoms: _312  and  _313
REMARK  123  A    between atoms: _312  and  _315
REMARK  124  A    between atoms: _315  and  _316
REMARK  125  A    between atoms: _319  and  _321
REMARK  126  A    between atoms: _321  and  _322
REMARK  127  A    between atoms: _321  and  _324
REMARK  128  A    between atoms: _324  and  _325
REMARK  129  A    between atoms: _325  and  _326
REMARK  130  A    between atoms: _329  and  _331
REMARK  131  A    between atoms: _331  and  _332
REMARK  132  A    between atoms: _331  and  _334
REMARK  133  A    between atoms: _334  and  _335
REMARK  134  A    between atoms: _338  and  _340
REMARK  135  A    between atoms: _340  and  _341
REMARK  136  A    between atoms: _340  and  _343
REMARK  137  A    between atoms: _346  and  _348
REMARK  138  A    between atoms: _348  and  _349
REMARK  139  A    between atoms: _348  and  _351
REMARK  140  A    between atoms: _354  and  _356
REMARK  141  A    between atoms: _356  and  _357
REMARK  142  A    between atoms: _360  and  _362
REMARK  143  A    between atoms: _362  and  _363
REMARK  144  A    between atoms: _362  and  _365
REMARK  145  A    between atoms: _365  and  _366
REMARK  146  A    between atoms: _371  and  _373
REMARK  147  A    between atoms: _384  and  _387
REMARK  148  A    between atoms: _387  and  _388
REMARK  149  A    between atoms: _388  and  _389
REMARK  150  A    between atoms: _394  and  _397
REMARK  151  A    between atoms: _397  and  _398
REMARK  152  A    between atoms: _398  and  _399
REMARK  153  A    between atoms: _408  and  _409
REMARK  154  A    between atoms: _417  and  _419
REMARK  155  A    between atoms: _419  and  _420
REMARK  156  A    between atoms: _419  and  _422
REMARK  157  A    between atoms: _422  and  _423
REMARK  158  A    between atoms: _426  and  _428
REMARK  159  A    between atoms: _428  and  _429
REMARK  160  A    between atoms: _428  and  _431
REMARK  161  A    between atoms: _431  and  _432
REMARK  162  A    between atoms: _437  and  _438
REMARK  163  A    between atoms: _440  and  _442
REMARK  164  A    between atoms: _442  and  _443
REMARK  165  A    between atoms: _442  and  _445
REMARK  166  A    between atoms: _445  and  _446
REMARK  167  A    between atoms: _452  and  _454
REMARK  168  A    between atoms: _454  and  _455
REMARK  169  A    between atoms: _454  and  _457
REMARK  170  A    between atoms: _457  and  _458
REMARK  171  A    between atoms: _463  and  _464
REMARK  172  A    between atoms: _466  and  _468
REMARK  173  A    between atoms: _468  and  _469
REMARK  174  A    between atoms: _468  and  _471
REMARK  175  A    between atoms: _471  and  _472
REMARK  176  A    between atoms: _472  and  _473
REMARK  177  A    between atoms: _473  and  _474
REMARK  178  A    between atoms: _483  and  _485
REMARK  179  A    between atoms: _485  and  _486
REMARK  180  A    between atoms: _485  and  _488
REMARK  181  A    between atoms: _488  and  _489
REMARK  182  A    between atoms: _489  and  _490
REMARK  183  A    between atoms: _493  and  _495
REMARK  184  A    between atoms: _495  and  _496
REMARK  185  A    between atoms: _498  and  _500
REMARK  186  A    between atoms: _500  and  _501
REMARK  187  A    between atoms: _500  and  _503
REMARK  188  A    between atoms: _503  and  _504
REMARK  189  A    between atoms: _510  and  _511
REMARK  190  A    between atoms: _516  and  _518
REMARK  191  A    between atoms: _518  and  _519
REMARK  192  A    between atoms: _521  and  _523
REMARK  193  A    between atoms: _523  and  _524
REMARK  194  A    between atoms: _523  and  _526
REMARK  195  A    between atoms: _526  and  _527
REMARK  196  A    between atoms: _533  and  _535
REMARK  197  A    between atoms: _535  and  _536
REMARK  198  A    between atoms: _535  and  _538
REMARK  199  A    between atoms: _538  and  _539
REMARK  200  A    between atoms: _544  and  _546
REMARK  201  A    between atoms: _546  and  _547
REMARK  202  A    between atoms: _546  and  _549
REMARK  203  A    between atoms: _549  and  _550
REMARK  204  A    between atoms: _550  and  _551
REMARK  205  A    between atoms: _551  and  _552
REMARK  206  A    between atoms: _552  and  ZN_793
REMARK  207  A    between atoms: _554  and  _556
REMARK  208  A    between atoms: _556  and  _557
REMARK  209  A    between atoms: _560  and  _562
REMARK  210  A    between atoms: _562  and  _563
REMARK  211  A    between atoms: _562  and  _565
REMARK  212  A    between atoms: _565  and  _566
REMARK  213  A    between atoms: _569  and  _571
REMARK  214  A    between atoms: _571  and  _572
REMARK  215  A    between atoms: _575  and  _577
REMARK  216  A    between atoms: _577  and  _578
REMARK  217  A    between atoms: _577  and  _580
REMARK  218  A    between atoms: _580  and  _581
REMARK  219  A    between atoms: _584  and  _586
REMARK  220  A    between atoms: _586  and  _587
REMARK  221  A    between atoms: _586  and  _589
REMARK  222  A    between atoms: _589  and  _590
REMARK  223  A    between atoms: _590  and  _591
REMARK  224  A    between atoms: _591  and  _592
REMARK  225  A    between atoms: _592  and  _593
REMARK  226  A    between atoms: _597  and  _599
REMARK  227  A    between atoms: _599  and  _600
REMARK  228  A    between atoms: _599  and  _602
REMARK  229  A    between atoms: _602  and  _603
REMARK  230  A    between atoms: _609  and  _611
REMARK  231  A    between atoms: _611  and  _612
REMARK  232  A    between atoms: _611  and  _614
REMARK  233  A    between atoms: _614  and  _615
REMARK  234  A    between atoms: _621  and  _623
REMARK  235  A    between atoms: _623  and  _624
REMARK  236  A    between atoms: _623  and  _626
REMARK  237  A    between atoms: _626  and  _627
REMARK  238  A    between atoms: _629  and  _631
REMARK  239  A    between atoms: _631  and  _632
REMARK  240  A    between atoms: _631  and  _634
REMARK  241  A    between atoms: _637  and  _639
REMARK  242  A    between atoms: _639  and  _640
REMARK  243  A    between atoms: _639  and  _642
REMARK  244  A    between atoms: _642  and  _643
REMARK  245  A    between atoms: _643  and  _644
REMARK  246  A    between atoms: _644  and  _645
REMARK  247  A    between atoms: _645  and  _646
REMARK  248  A    between atoms: _650  and  _652
REMARK  249  A    between atoms: _652  and  _653
REMARK  250  A    between atoms: _652  and  _655
REMARK  251  A    between atoms: _655  and  _656
REMARK  252  A    between atoms: _662  and  _664
REMARK  253  A    between atoms: _664  and  _665
REMARK  254  A    between atoms: _664  and  _667
REMARK  255  A    between atoms: _667  and  _668
REMARK  256  A    between atoms: _673  and  _675
REMARK  257  A    between atoms: _675  and  _676
REMARK  258  A    between atoms: _675  and  _678
REMARK  259  A    between atoms: _678  and  _679
REMARK  260  A    between atoms: _681  and  _683
REMARK  261  A    between atoms: _683  and  _684
REMARK  262  A    between atoms: _683  and  _686
REMARK  263  A    between atoms: _686  and  _687
REMARK  264  A    between atoms: _689  and  _691
REMARK  265  A    between atoms: _691  and  _692
REMARK  266  A    between atoms: _691  and  _694
REMARK  267  A    between atoms: _698  and  _699
REMARK  268  A    between atoms: _704  and  _706
REMARK  269  A    between atoms: _706  and  _707
REMARK  270  A    between atoms: _706  and  _709
REMARK  271  A    between atoms: _709  and  _710
REMARK  272  A    between atoms: _715  and  _716
REMARK  273  A    between atoms: _718  and  _720
REMARK  274  A    between atoms: _720  and  _721
REMARK  275  A    between atoms: _720  and  _723
REMARK  276  A    between atoms: _723  and  _724
REMARK  277  A    between atoms: _724  and  _725
REMARK  278  A    between atoms: _725  and  _726
REMARK  279  A    between atoms: _735  and  _737
REMARK  280  A    between atoms: _737  and  _738
REMARK  281  A    between atoms: _737  and  _740
REMARK  282  A    between atoms: _740  and  _741
REMARK  283  A    between atoms: _746  and  _747
REMARK  284  A    between atoms: _749  and  _751
REMARK  285  A    between atoms: _751  and  _752
REMARK  286  A    between atoms: _751  and  _754
REMARK  287  A    between atoms: _754  and  _755
REMARK  288  A    between atoms: _761  and  _763
REMARK  289  A    between atoms: _763  and  _764
REMARK  290  A    between atoms: _763  and  _766
REMARK  291  A    between atoms: _766  and  _767
REMARK  292  A    between atoms: _769  and  _771
REMARK  293  A    between atoms: _771  and  _772
REMARK  294  A    between atoms: _771  and  _774
REMARK  295  A    between atoms: _774  and  _775
REMARK  296  A    between atoms: _781  and  _783
REMARK  297  A    between atoms: _783  and  _784
REMARK  298  A    between atoms: _783  and  _786
REMARK  299  A    between atoms: _786  and  _787
REMARK  300  A    between atoms: _787  and  _788
REMARK                            x       y       z     vdW  Elec       q    Type
REMARK                         _______ _______ _______ _____ _____    ______ ____
ROOT
ATOM      1  O   HOH     1      22.688 -16.357 -31.208  0.00  0.00    +0.000 OA
ENDROOT
TORSDOF 0
REMARK  Name = ../refined-set-2016/4ca5/4ca5_pocket.pdb
REMARK  300 active torsions:
REMARK  status: ('A' for Active; 'I' for Inactive)
REMARK    1  A    between atoms: _1  and  _3
REMARK    2  A    between atoms: _3  and  _4
REMARK    3  A    between atoms: _3  and  _6
REMARK    4  A    between atoms: _6  and  _7
REMARK    5  A    between atoms: _12  and  _14
REMARK    6  A    between atoms: _14  and  _15
REMARK    7  A    between atoms: _14  and  _17
REMARK    8  A    between atoms: _17  and  _18
REMARK    9  A    between atoms: _23  and  _25
REMARK   10  A    between atoms: _25  and  _26
REMARK   11  A    between atoms: _25  and  _28
REMARK   12  A    between atoms: _28  and  _29
REMARK   13  A    between atoms: _29  and  _30
REMARK   14  A    between atoms: _33  and  _35
REMARK   15  A    between atoms: _35  and  _36
REMARK   16  A    between atoms: _35  and  _38
REMARK   17  A    between atoms: _38  and  _39
REMARK   18  A    between atoms: _44  and  _45
REMARK   19  A    between atoms: _47  and  _49
REMARK   20  A    between atoms: _49  and  _50
REMARK   21  A    between atoms: _49  and  _52
REMARK   22  A    between atoms: _52  and  _53
REMARK   23  A    between atoms: _53  and  _54
REMARK   24  A    between atoms: _57  and  _59
REMARK   25  A    between atoms: _59  and  _60
REMARK   26  A    between atoms: _59  and  _62
REMARK   27  A    between atoms: _62  and  _63
REMARK   28  A    between atoms: _66  and  _68
REMARK   29  A    between atoms: _68  and  _69
REMARK   30  A    between atoms: _71  and  _73
REMARK   31  A    between atoms: _73  and  _74
REMARK   32  A    between atoms: _73  and  _76
REMARK   33  A    between atoms: _76  and  _77
REMARK   34  A    between atoms: _82  and  _84
REMARK   35  A    between atoms: _84  and  _85
REMARK   36  A    between atoms: _84  and  _87
REMARK   37  A    between atoms: _87  and  _88
REMARK   38  A    between atoms: _88  and  _89
REMARK   39  A    between atoms: _91  and  _93
REMARK   40  A    between atoms: _93  and  _94
REMARK   41  A    between atoms: _93  and  _96
REMARK   42  A    between atoms: _96  and  _97
REMARK   43  A    between atoms: _107  and  _109
REMARK   44  A    between atoms: _109  and  _110
REMARK   45  A    between atoms: _109  and  _112
REMARK   46  A    between atoms: _112  and  _113
REMARK   47  A    between atoms: _113  and  _114
REMARK   48  A    between atoms: _119  and  _121
REMARK   49  A    between atoms: _121  and  _122
REMARK   50  A    between atoms: _121  and  _124
REMARK   51  A    between atoms: _124  and  _125
REMARK   52  A    between atoms: _128  and  _130
REMARK   53  A    between atoms: _130  and  _131
REMARK   54  A    between atoms: _130  and  _133
REMARK   55  A    between atoms: _133  and  _134
REMARK   56  A    between atoms: _144  and  _146
REMARK   57  A    between atoms: _146  and  _147
REMARK   58  A    between atoms: _146  and  _149
REMARK   59  A    between atoms: _149  and  _150
REMARK   60  A    between atoms: _152  and  _154
REMARK   61  A    between atoms: _154  and  _155
REMARK   62  A    between atoms: _154  and  _157
REMARK   63  A    between atoms: _157  and  _158
REMARK   64  A    between atoms: _163  and  _165
REMARK   65  A    between atoms: _165  and  _166
REMARK   66  A    between atoms: _165  and  _168
REMARK   67  A    between atoms: _171  and  _173
REMARK   68  A    between atoms: _173  and  _174
REMARK   69  A    between atoms: _173  and  _176
REMARK   70  A    between atoms: _178  and  _180
REMARK   71  A    between atoms: _180  and  _181
REMARK   72  A    between atoms: _180  and  _183
REMARK   73  A    between atoms: _183  and  _184
REMARK   74  A    between atoms: _189  and  _191
REMARK   75  A    between atoms: _191  and  _192
REMARK   76  A    between atoms: _195  and  _197
REMARK   77  A    between atoms: _197  and  _198
REMARK   78  A    between atoms: _197  and  _200
REMARK   79  A    between atoms: _200  and  _201
REMARK   80  A    between atoms: _203  and  _205
REMARK   81  A    between atoms: _205  and  _206
REMARK   82  A    between atoms: _209  and  _211
REMARK   83  A    between atoms: _211  and  _212
REMARK   84  A    between atoms: _211  and  _214
REMARK   85  A    between atoms: _214  and  _215
REMARK   86  A    between atoms: _225  and  _227
REMARK   87  A    between atoms: _227  and  _228
REMARK   88  A    between atoms: _227  and  _230
REMARK   89  A    between atoms: _230  and  _231
REMARK   90  A    between atoms: _234  and  _236
REMARK   91  A    between atoms: _236  and  _237
REMARK   92  A    between atoms: _236  and  _239
REMARK   93  A    between atoms: _239  and  _240
REMARK   94  A    between atoms: _245  and  _246
REMARK   95  A    between atoms: _248  and  _250
REMARK   96  A    between atoms: _250  and  _251
REMARK   97  A    between atoms: _250  and  _253
REMARK   98  A    between atoms: _253  and  _254
REMARK   99  A    between atoms: _254  and  _255
REMARK  100  A    between atoms: _255  and  _256
REMARK  101  A    between atoms: _265  and  _267
REMARK  102  A    between atoms: _267  and  _268
REMARK  103  A    between atoms: _267  and  _270
REMARK  104  A    between atoms: _270  and  _271
REMARK  105  A    between atoms: _274  and  _276
REMARK  106  A    between atoms: _276  and  _277
REMARK  107  A    between atoms: _276  and  _279
REMARK  108  A    between atoms: _279  and  _280
REMARK  109  A    between atoms: _280  and  _281
REMARK  110  A    between atoms: _281  and  _282
REMARK  111  A    between atoms: _282  and  _283
REMARK  112  A    between atoms: _287  and  _289
REMARK  113  A    between atoms: _289  and  _290
REMARK  114  A    between atoms: _289  and  _292
REMARK  115  A    between atoms: _292  and  _293
REMARK  116  A    between atoms: _293  and  _294
REMARK  117  A    between atoms: _299  and  _301
REMARK  118  A    between atoms: _301  and  _302
REMARK  119  A    between atoms: _301  and  _304
REMARK  120  A    between atoms: _304  and  _305
REMARK  121  A    between atoms: _310  and  _312
REMARK  122  A    between atoms: _312  and  _313
REMARK  123  A    between atoms: _312  and  _315
REMARK  124  A    between atoms: _315  and  _316
REMARK  125  A    between atoms: _319  and  _321
REMARK  126  A    between atoms: _321  and  _322
REMARK  127  A    between atoms: _321  and  _324
REMARK  128  A    between atoms: _324  and  _325
REMARK  129  A    between atoms: _325  and  _326
REMARK  130  A    between atoms: _329  and  _331
REMARK  131  A    between atoms: _331  and  _332
REMARK  132  A    between atoms: _331  and  _334
REMARK  133  A    between atoms: _334  and  _335
REMARK  134  A    between atoms: _338  and  _340
REMARK  135  A    between atoms: _340  and  _341
REMARK  136  A    between atoms: _340  and  _343
REMARK  137  A    between atoms: _346  and  _348
REMARK  138  A    between atoms: _348  and  _349
REMARK  139  A    between atoms: _348  and  _351
REMARK  140  A    between atoms: _354  and  _356
REMARK  141  A    between atoms: _356  and  _357
REMARK  142  A    between atoms: _360  and  _362
REMARK  143  A    between atoms: _362  and  _363
REMARK  144  A    between atoms: _362  and  _365
REMARK  145  A    between atoms: _365  and  _366
REMARK  146  A    between atoms: _371  and  _373
REMARK  147  A    between atoms: _384  and  _387
REMARK  148  A    between atoms: _387  and  _388
REMARK  149  A    between atoms: _388  and  _389
REMARK  150  A    between atoms: _394  and  _397
REMARK  151  A    between atoms: _397  and  _398
REMARK  152  A    between atoms: _398  and  _399
REMARK  153  A    between atoms: _408  and  _409
REMARK  154  A    between atoms: _417  and  _419
REMARK  155  A    between atoms: _419  and  _420
REMARK  156  A    between atoms: _419  and  _422
REMARK  157  A    between atoms: _422  and  _423
REMARK  158  A    between atoms: _426  and  _428
REMARK  159  A    between atoms: _428  and  _429
REMARK  160  A    between atoms: _428  and  _431
REMARK  161  A    between atoms: _431  and  _432
REMARK  162  A    between atoms: _437  and  _438
REMARK  163  A    between atoms: _440  and  _442
REMARK  164  A    between atoms: _442  and  _443
REMARK  165  A    between atoms: _442  and  _445
REMARK  166  A    between atoms: _445  and  _446
REMARK  167  A    between atoms: _452  and  _454
REMARK  168  A    between atoms: _454  and  _455
REMARK  169  A    between atoms: _454  and  _457
REMARK  170  A    between atoms: _457  and  _458
REMARK  171  A    between atoms: _463  and  _464
REMARK  172  A    between atoms: _466  and  _468
REMARK  173  A    between atoms: _468  and  _469
REMARK  174  A    between atoms: _468  and  _471
REMARK  175  A    between atoms: _471  and  _472
REMARK  176  A    between atoms: _472  and  _473
REMARK  177  A    between atoms: _473  and  _474
REMARK  178  A    between atoms: _483  and  _485
REMARK  179  A    between atoms: _485  and  _486
REMARK  180  A    between atoms: _485  and  _488
REMARK  181  A    between atoms: _488  and  _489
REMARK  182  A    between atoms: _489  and  _490
REMARK  183  A    between atoms: _493  and  _495
REMARK  184  A    between atoms: _495  and  _496
REMARK  185  A    between atoms: _498  and  _500
REMARK  186  A    between atoms: _500  and  _501
REMARK  187  A    between atoms: _500  and  _503
REMARK  188  A    between atoms: _503  and  _504
REMARK  189  A    between atoms: _510  and  _511
REMARK  190  A    between atoms: _516  and  _518
REMARK  191  A    between atoms: _518  and  _519
REMARK  192  A    between atoms: _521  and  _523
REMARK  193  A    between atoms: _523  and  _524
REMARK  194  A    between atoms: _523  and  _526
REMARK  195  A    between atoms: _526  and  _527
REMARK  196  A    between atoms: _533  and  _535
REMARK  197  A    between atoms: _535  and  _536
REMARK  198  A    between atoms: _535  and  _538
REMARK  199  A    between atoms: _538  and  _539
REMARK  200  A    between atoms: _544  and  _546
REMARK  201  A    between atoms: _546  and  _547
REMARK  202  A    between atoms: _546  and  _549
REMARK  203  A    between atoms: _549  and  _550
REMARK  204  A    between atoms: _550  and  _551
REMARK  205  A    between atoms: _551  and  _552
REMARK  206  A    between atoms: _552  and  ZN_793
REMARK  207  A    between atoms: _554  and  _556
REMARK  208  A    between atoms: _556  and  _557
REMARK  209  A    between atoms: _560  and  _562
REMARK  210  A    between atoms: _562  and  _563
REMARK  211  A    between atoms: _562  and  _565
REMARK  212  A    between atoms: _565  and  _566
REMARK  213  A    between atoms: _569  and  _571
REMARK  214  A    between atoms: _571  and  _572
REMARK  215  A    between atoms: _575  and  _577
REMARK  216  A    between atoms: _577  and  _578
REMARK  217  A    between atoms: _577  and  _580
REMARK  218  A    between atoms: _580  and  _581
REMARK  219  A    between atoms: _584  and  _586
REMARK  220  A    between atoms: _586  and  _587
REMARK  221  A    between atoms: _586  and  _589
REMARK  222  A    between atoms: _589  and  _590
REMARK  223  A    between atoms: _590  and  _591
REMARK  224  A    between atoms: _591  and  _592
REMARK  225  A    between atoms: _592  and  _593
REMARK  226  A    between atoms: _597  and  _599
REMARK  227  A    between atoms: _599  and  _600
REMARK  228  A    between atoms: _599  and  _602
REMARK  229  A    between atoms: _602  and  _603
REMARK  230  A    between atoms: _609  and  _611
REMARK  231  A    between atoms: _611  and  _612
REMARK  232  A    between atoms: _611  and  _614
REMARK  233  A    between atoms: _614  and  _615
REMARK  234  A    between atoms: _621  and  _623
REMARK  235  A    between atoms: _623  and  _624
REMARK  236  A    between atoms: _623  and  _626
REMARK  237  A    between atoms: _626  and  _627
REMARK  238  A    between atoms: _629  and  _631
REMARK  239  A    between atoms: _631  and  _632
REMARK  240  A    between atoms: _631  and  _634
REMARK  241  A    between atoms: _637  and  _639
REMARK  242  A    between atoms: _639  and  _640
REMARK  243  A    between atoms: _639  and  _642
REMARK  244  A    between atoms: _642  and  _643
REMARK  245  A    between atoms: _643  and  _644
REMARK  246  A    between atoms: _644  and  _645
REMARK  247  A    between atoms: _645  and  _646
REMARK  248  A    between atoms: _650  and  _652
REMARK  249  A    between atoms: _652  and  _653
REMARK  250  A    between atoms: _652  and  _655
REMARK  251  A    between atoms: _655  and  _656
REMARK  252  A    between atoms: _662  and  _664
REMARK  253  A    between atoms: _664  and  _665
REMARK  254  A    between atoms: _664  and  _667
REMARK  255  A    between atoms: _667  and  _668
REMARK  256  A    between atoms: _673  and  _675
REMARK  257  A    between atoms: _675  and  _676
REMARK  258  A    between atoms: _675  and  _678
REMARK  259  A    between atoms: _678  and  _679
REMARK  260  A    between atoms: _681  and  _683
REMARK  261  A    between atoms: _683  and  _684
REMARK  262  A    between atoms: _683  and  _686
REMARK  263  A    between atoms: _686  and  _687
REMARK  264  A    between atoms: _689  and  _691
REMARK  265  A    between atoms: _691  and  _692
REMARK  266  A    between atoms: _691  and  _694
REMARK  267  A    between atoms: _698  and  _699
REMARK  268  A    between atoms: _704  and  _706
REMARK  269  A    between atoms: _706  and  _707
REMARK  270  A    between atoms: _706  and  _709
REMARK  271  A    between atoms: _709  and  _710
REMARK  272  A    between atoms: _715  and  _716
REMARK  273  A    between atoms: _718  and  _720
REMARK  274  A    between atoms: _720  and  _721
REMARK  275  A    between atoms: _720  and  _723
REMARK  276  A    between atoms: _723  and  _724
REMARK  277  A    between atoms: _724  and  _725
REMARK  278  A    between atoms: _725  and  _726
REMARK  279  A    between atoms: _735  and  _737
REMARK  280  A    between atoms: _737  and  _738
REMARK  281  A    between atoms: _737  and  _740
REMARK  282  A    between atoms: _740  and  _741
REMARK  283  A    between atoms: _746  and  _747
REMARK  284  A    between atoms: _749  and  _751
REMARK  285  A    between atoms: _751  and  _752
REMARK  286  A    between atoms: _751  and  _754
REMARK  287  A    between atoms: _754  and  _755
REMARK  288  A    between atoms: _761  and  _763
REMARK  289  A    between atoms: _763  and  _764
REMARK  290  A    between atoms: _763  and  _766
REMARK  291  A    between atoms: _766  and  _767
REMARK  292  A    between atoms: _769  and  _771
REMARK  293  A    between atoms: _771  and  _772
REMARK  294  A    between atoms: _771  and  _774
REMARK  295  A    between atoms: _774  and  _775
REMARK  296  A    between atoms: _781  and  _783
REMARK  297  A    between atoms: _783  and  _784
REMARK  298  A    between atoms: _783  and  _786
REMARK  299  A    between atoms: _786  and  _787
REMARK  300  A    between atoms: _787  and  _788
REMARK                            x       y       z     vdW  Elec       q    Type
REMARK                         _______ _______ _______ _____ _____    ______ ____
ROOT
ATOM      1  O   HOH     1      21.865  -9.145 -32.168  0.00  0.00    +0.000 OA
ENDROOT
TORSDOF 0
REMARK  Name = ../refined-set-2016/4ca5/4ca5_pocket.pdb
REMARK  300 active torsions:
REMARK  status: ('A' for Active; 'I' for Inactive)
REMARK    1  A    between atoms: _1  and  _3
REMARK    2  A    between atoms: _3  and  _4
REMARK    3  A    between atoms: _3  and  _6
REMARK    4  A    between atoms: _6  and  _7
REMARK    5  A    between atoms: _12  and  _14
REMARK    6  A    between atoms: _14  and  _15
REMARK    7  A    between atoms: _14  and  _17
REMARK    8  A    between atoms: _17  and  _18
REMARK    9  A    between atoms: _23  and  _25
REMARK   10  A    between atoms: _25  and  _26
REMARK   11  A    between atoms: _25  and  _28
REMARK   12  A    between atoms: _28  and  _29
REMARK   13  A    between atoms: _29  and  _30
REMARK   14  A    between atoms: _33  and  _35
REMARK   15  A    between atoms: _35  and  _36
REMARK   16  A    between atoms: _35  and  _38
REMARK   17  A    between atoms: _38  and  _39
REMARK   18  A    between atoms: _44  and  _45
REMARK   19  A    between atoms: _47  and  _49
REMARK   20  A    between atoms: _49  and  _50
REMARK   21  A    between atoms: _49  and  _52
REMARK   22  A    between atoms: _52  and  _53
REMARK   23  A    between atoms: _53  and  _54
REMARK   24  A    between atoms: _57  and  _59
REMARK   25  A    between atoms: _59  and  _60
REMARK   26  A    between atoms: _59  and  _62
REMARK   27  A    between atoms: _62  and  _63
REMARK   28  A    between atoms: _66  and  _68
REMARK   29  A    between atoms: _68  and  _69
REMARK   30  A    between atoms: _71  and  _73
REMARK   31  A    between atoms: _73  and  _74
REMARK   32  A    between atoms: _73  and  _76
REMARK   33  A    between atoms: _76  and  _77
REMARK   34  A    between atoms: _82  and  _84
REMARK   35  A    between atoms: _84  and  _85
REMARK   36  A    between atoms: _84  and  _87
REMARK   37  A    between atoms: _87  and  _88
REMARK   38  A    between atoms: _88  and  _89
REMARK   39  A    between atoms: _91  and  _93
REMARK   40  A    between atoms: _93  and  _94
REMARK   41  A    between atoms: _93  and  _96
REMARK   42  A    between atoms: _96  and  _97
REMARK   43  A    between atoms: _107  and  _109
REMARK   44  A    between atoms: _109  and  _110
REMARK   45  A    between atoms: _109  and  _112
REMARK   46  A    between atoms: _112  and  _113
REMARK   47  A    between atoms: _113  and  _114
REMARK   48  A    between atoms: _119  and  _121
REMARK   49  A    between atoms: _121  and  _122
REMARK   50  A    between atoms: _121  and  _124
REMARK   51  A    between atoms: _124  and  _125
REMARK   52  A    between atoms: _128  and  _130
REMARK   53  A    between atoms: _130  and  _131
REMARK   54  A    between atoms: _130  and  _133
REMARK   55  A    between atoms: _133  and  _134
REMARK   56  A    between atoms: _144  and  _146
REMARK   57  A    between atoms: _146  and  _147
REMARK   58  A    between atoms: _146  and  _149
REMARK   59  A    between atoms: _149  and  _150
REMARK   60  A    between atoms: _152  and  _154
REMARK   61  A    between atoms: _154  and  _155
REMARK   62  A    between atoms: _154  and  _157
REMARK   63  A    between atoms: _157  and  _158
REMARK   64  A    between atoms: _163  and  _165
REMARK   65  A    between atoms: _165  and  _166
REMARK   66  A    between atoms: _165  and  _168
REMARK   67  A    between atoms: _171  and  _173
REMARK   68  A    between atoms: _173  and  _174
REMARK   69  A    between atoms: _173  and  _176
REMARK   70  A    between atoms: _178  and  _180
REMARK   71  A    between atoms: _180  and  _181
REMARK   72  A    between atoms: _180  and  _183
REMARK   73  A    between atoms: _183  and  _184
REMARK   74  A    between atoms: _189  and  _191
REMARK   75  A    between atoms: _191  and  _192
REMARK   76  A    between atoms: _195  and  _197
REMARK   77  A    between atoms: _197  and  _198
REMARK   78  A    between atoms: _197  and  _200
REMARK   79  A    between atoms: _200  and  _201
REMARK   80  A    between atoms: _203  and  _205
REMARK   81  A    between atoms: _205  and  _206
REMARK   82  A    between atoms: _209  and  _211
REMARK   83  A    between atoms: _211  and  _212
REMARK   84  A    between atoms: _211  and  _214
REMARK   85  A    between atoms: _214  and  _215
REMARK   86  A    between atoms: _225  and  _227
REMARK   87  A    between atoms: _227  and  _228
REMARK   88  A    between atoms: _227  and  _230
REMARK   89  A    between atoms: _230  and  _231
REMARK   90  A    between atoms: _234  and  _236
REMARK   91  A    between atoms: _236  and  _237
REMARK   92  A    between atoms: _236  and  _239
REMARK   93  A    between atoms: _239  and  _240
REMARK   94  A    between atoms: _245  and  _246
REMARK   95  A    between atoms: _248  and  _250
REMARK   96  A    between atoms: _250  and  _251
REMARK   97  A    between atoms: _250  and  _253
REMARK   98  A    between atoms: _253  and  _254
REMARK   99  A    between atoms: _254  and  _255
REMARK  100  A    between atoms: _255  and  _256
REMARK  101  A    between atoms: _265  and  _267
REMARK  102  A    between atoms: _267  and  _268
REMARK  103  A    between atoms: _267  and  _270
REMARK  104  A    between atoms: _270  and  _271
REMARK  105  A    between atoms: _274  and  _276
REMARK  106  A    between atoms: _276  and  _277
REMARK  107  A    between atoms: _276  and  _279
REMARK  108  A    between atoms: _279  and  _280
REMARK  109  A    between atoms: _280  and  _281
REMARK  110  A    between atoms: _281  and  _282
REMARK  111  A    between atoms: _282  and  _283
REMARK  112  A    between atoms: _287  and  _289
REMARK  113  A    between atoms: _289  and  _290
REMARK  114  A    between atoms: _289  and  _292
REMARK  115  A    between atoms: _292  and  _293
REMARK  116  A    between atoms: _293  and  _294
REMARK  117  A    between atoms: _299  and  _301
REMARK  118  A    between atoms: _301  and  _302
REMARK  119  A    between atoms: _301  and  _304
REMARK  120  A    between atoms: _304  and  _305
REMARK  121  A    between atoms: _310  and  _312
REMARK  122  A    between atoms: _312  and  _313
REMARK  123  A    between atoms: _312  and  _315
REMARK  124  A    between atoms: _315  and  _316
REMARK  125  A    between atoms: _319  and  _321
REMARK  126  A    between atoms: _321  and  _322
REMARK  127  A    between atoms: _321  and  _324
REMARK  128  A    between atoms: _324  and  _325
REMARK  129  A    between atoms: _325  and  _326
REMARK  130  A    between atoms: _329  and  _331
REMARK  131  A    between atoms: _331  and  _332
REMARK  132  A    between atoms: _331  and  _334
REMARK  133  A    between atoms: _334  and  _335
REMARK  134  A    between atoms: _338  and  _340
REMARK  135  A    between atoms: _340  and  _341
REMARK  136  A    between atoms: _340  and  _343
REMARK  137  A    between atoms: _346  and  _348
REMARK  138  A    between atoms: _348  and  _349
REMARK  139  A    between atoms: _348  and  _351
REMARK  140  A    between atoms: _354  and  _356
REMARK  141  A    between atoms: _356  and  _357
REMARK  142  A    between atoms: _360  and  _362
REMARK  143  A    between atoms: _362  and  _363
REMARK  144  A    between atoms: _362  and  _365
REMARK  145  A    between atoms: _365  and  _366
REMARK  146  A    between atoms: _371  and  _373
REMARK  147  A    between atoms: _384  and  _387
REMARK  148  A    between atoms: _387  and  _388
REMARK  149  A    between atoms: _388  and  _389
REMARK  150  A    between atoms: _394  and  _397
REMARK  151  A    between atoms: _397  and  _398
REMARK  152  A    between atoms: _398  and  _399
REMARK  153  A    between atoms: _408  and  _409
REMARK  154  A    between atoms: _417  and  _419
REMARK  155  A    between atoms: _419  and  _420
REMARK  156  A    between atoms: _419  and  _422
REMARK  157  A    between atoms: _422  and  _423
REMARK  158  A    between atoms: _426  and  _428
REMARK  159  A    between atoms: _428  and  _429
REMARK  160  A    between atoms: _428  and  _431
REMARK  161  A    between atoms: _431  and  _432
REMARK  162  A    between atoms: _437  and  _438
REMARK  163  A    between atoms: _440  and  _442
REMARK  164  A    between atoms: _442  and  _443
REMARK  165  A    between atoms: _442  and  _445
REMARK  166  A    between atoms: _445  and  _446
REMARK  167  A    between atoms: _452  and  _454
REMARK  168  A    between atoms: _454  and  _455
REMARK  169  A    between atoms: _454  and  _457
REMARK  170  A    between atoms: _457  and  _458
REMARK  171  A    between atoms: _463  and  _464
REMARK  172  A    between atoms: _466  and  _468
REMARK  173  A    between atoms: _468  and  _469
REMARK  174  A    between atoms: _468  and  _471
REMARK  175  A    between atoms: _471  and  _472
REMARK  176  A    between atoms: _472  and  _473
REMARK  177  A    between atoms: _473  and  _474
REMARK  178  A    between atoms: _483  and  _485
REMARK  179  A    between atoms: _485  and  _486
REMARK  180  A    between atoms: _485  and  _488
REMARK  181  A    between atoms: _488  and  _489
REMARK  182  A    between atoms: _489  and  _490
REMARK  183  A    between atoms: _493  and  _495
REMARK  184  A    between atoms: _495  and  _496
REMARK  185  A    between atoms: _498  and  _500
REMARK  186  A    between atoms: _500  and  _501
REMARK  187  A    between atoms: _500  and  _503
REMARK  188  A    between atoms: _503  and  _504
REMARK  189  A    between atoms: _510  and  _511
REMARK  190  A    between atoms: _516  and  _518
REMARK  191  A    between atoms: _518  and  _519
REMARK  192  A    between atoms: _521  and  _523
REMARK  193  A    between atoms: _523  and  _524
REMARK  194  A    between atoms: _523  and  _526
REMARK  195  A    between atoms: _526  and  _527
REMARK  196  A    between atoms: _533  and  _535
REMARK  197  A    between atoms: _535  and  _536
REMARK  198  A    between atoms: _535  and  _538
REMARK  199  A    between atoms: _538  and  _539
REMARK  200  A    between atoms: _544  and  _546
REMARK  201  A    between atoms: _546  and  _547
REMARK  202  A    between atoms: _546  and  _549
REMARK  203  A    between atoms: _549  and  _550
REMARK  204  A    between atoms: _550  and  _551
REMARK  205  A    between atoms: _551  and  _552
REMARK  206  A    between atoms: _552  and  ZN_793
REMARK  207  A    between atoms: _554  and  _556
REMARK  208  A    between atoms: _556  and  _557
REMARK  209  A    between atoms: _560  and  _562
REMARK  210  A    between atoms: _562  and  _563
REMARK  211  A    between atoms: _562  and  _565
REMARK  212  A    between atoms: _565  and  _566
REMARK  213  A    between atoms: _569  and  _571
REMARK  214  A    between atoms: _571  and  _572
REMARK  215  A    between atoms: _575  and  _577
REMARK  216  A    between atoms: _577  and  _578
REMARK  217  A    between atoms: _577  and  _580
REMARK  218  A    between atoms: _580  and  _581
REMARK  219  A    between atoms: _584  and  _586
REMARK  220  A    between atoms: _586  and  _587
REMARK  221  A    between atoms: _586  and  _589
REMARK  222  A    between atoms: _589  and  _590
REMARK  223  A    between atoms: _590  and  _591
REMARK  224  A    between atoms: _591  and  _592
REMARK  225  A    between atoms: _592  and  _593
REMARK  226  A    between atoms: _597  and  _599
REMARK  227  A    between atoms: _599  and  _600
REMARK  228  A    between atoms: _599  and  _602
REMARK  229  A    between atoms: _602  and  _603
REMARK  230  A    between atoms: _609  and  _611
REMARK  231  A    between atoms: _611  and  _612
REMARK  232  A    between atoms: _611  and  _614
REMARK  233  A    between atoms: _614  and  _615
REMARK  234  A    between atoms: _621  and  _623
REMARK  235  A    between atoms: _623  and  _624
REMARK  236  A    between atoms: _623  and  _626
REMARK  237  A    between atoms: _626  and  _627
REMARK  238  A    between atoms: _629  and  _631
REMARK  239  A    between atoms: _631  and  _632
REMARK  240  A    between atoms: _631  and  _634
REMARK  241  A    between atoms: _637  and  _639
REMARK  242  A    between atoms: _639  and  _640
REMARK  243  A    between atoms: _639  and  _642
REMARK  244  A    between atoms: _642  and  _643
REMARK  245  A    between atoms: _643  and  _644
REMARK  246  A    between atoms: _644  and  _645
REMARK  247  A    between atoms: _645  and  _646
REMARK  248  A    between atoms: _650  and  _652
REMARK  249  A    between atoms: _652  and  _653
REMARK  250  A    between atoms: _652  and  _655
REMARK  251  A    between atoms: _655  and  _656
REMARK  252  A    between atoms: _662  and  _664
REMARK  253  A    between atoms: _664  and  _665
REMARK  254  A    between atoms: _664  and  _667
REMARK  255  A    between atoms: _667  and  _668
REMARK  256  A    between atoms: _673  and  _675
REMARK  257  A    between atoms: _675  and  _676
REMARK  258  A    between atoms: _675  and  _678
REMARK  259  A    between atoms: _678  and  _679
REMARK  260  A    between atoms: _681  and  _683
REMARK  261  A    between atoms: _683  and  _684
REMARK  262  A    between atoms: _683  and  _686
REMARK  263  A    between atoms: _686  and  _687
REMARK  264  A    between atoms: _689  and  _691
REMARK  265  A    between atoms: _691  and  _692
REMARK  266  A    between atoms: _691  and  _694
REMARK  267  A    between atoms: _698  and  _699
REMARK  268  A    between atoms: _704  and  _706
REMARK  269  A    between atoms: _706  and  _707
REMARK  270  A    between atoms: _706  and  _709
REMARK  271  A    between atoms: _709  and  _710
REMARK  272  A    between atoms: _715  and  _716
REMARK  273  A    between atoms: _718  and  _720
REMARK  274  A    between atoms: _720  and  _721
REMARK  275  A    between atoms: _720  and  _723
REMARK  276  A    between atoms: _723  and  _724
REMARK  277  A    between atoms: _724  and  _725
REMARK  278  A    between atoms: _725  and  _726
REMARK  279  A    between atoms: _735  and  _737
REMARK  280  A    between atoms: _737  and  _738
REMARK  281  A    between atoms: _737  and  _740
REMARK  282  A    between atoms: _740  and  _741
REMARK  283  A    between atoms: _746  and  _747
REMARK  284  A    between atoms: _749  and  _751
REMARK  285  A    between atoms: _751  and  _752
REMARK  286  A    between atoms: _751  and  _754
REMARK  287  A    between atoms: _754  and  _755
REMARK  288  A    between atoms: _761  and  _763
REMARK  289  A    between atoms: _763  and  _764
REMARK  290  A    between atoms: _763  and  _766
REMARK  291  A    between atoms: _766  and  _767
REMARK  292  A    between atoms: _769  and  _771
REMARK  293  A    between atoms: _771  and  _772
REMARK  294  A    between atoms: _771  and  _774
REMARK  295  A    between atoms: _774  and  _775
REMARK  296  A    between atoms: _781  and  _783
REMARK  297  A    between atoms: _783  and  _784
REMARK  298  A    between atoms: _783  and  _786
REMARK  299  A    between atoms: _786  and  _787
REMARK  300  A    between atoms: _787  and  _788
REMARK                            x       y       z     vdW  Elec       q    Type
REMARK                         _______ _______ _______ _____ _____    ______ ____
ROOT
ATOM      1  O   HOH     1      19.992 -10.377 -30.652  0.00  0.00    +0.000 OA
ENDROOT
TORSDOF 0
REMARK  Name = ../refined-set-2016/4ca5/4ca5_pocket.pdb
REMARK  300 active torsions:
REMARK  status: ('A' for Active; 'I' for Inactive)
REMARK    1  A    between atoms: _1  and  _3
REMARK    2  A    between atoms: _3  and  _4
REMARK    3  A    between atoms: _3  and  _6
REMARK    4  A    between atoms: _6  and  _7
REMARK    5  A    between atoms: _12  and  _14
REMARK    6  A    between atoms: _14  and  _15
REMARK    7  A    between atoms: _14  and  _17
REMARK    8  A    between atoms: _17  and  _18
REMARK    9  A    between atoms: _23  and  _25
REMARK   10  A    between atoms: _25  and  _26
REMARK   11  A    between atoms: _25  and  _28
REMARK   12  A    between atoms: _28  and  _29
REMARK   13  A    between atoms: _29  and  _30
REMARK   14  A    between atoms: _33  and  _35
REMARK   15  A    between atoms: _35  and  _36
REMARK   16  A    between atoms: _35  and  _38
REMARK   17  A    between atoms: _38  and  _39
REMARK   18  A    between atoms: _44  and  _45
REMARK   19  A    between atoms: _47  and  _49
REMARK   20  A    between atoms: _49  and  _50
REMARK   21  A    between atoms: _49  and  _52
REMARK   22  A    between atoms: _52  and  _53
REMARK   23  A    between atoms: _53  and  _54
REMARK   24  A    between atoms: _57  and  _59
REMARK   25  A    between atoms: _59  and  _60
REMARK   26  A    between atoms: _59  and  _62
REMARK   27  A    between atoms: _62  and  _63
REMARK   28  A    between atoms: _66  and  _68
REMARK   29  A    between atoms: _68  and  _69
REMARK   30  A    between atoms: _71  and  _73
REMARK   31  A    between atoms: _73  and  _74
REMARK   32  A    between atoms: _73  and  _76
REMARK   33  A    between atoms: _76  and  _77
REMARK   34  A    between atoms: _82  and  _84
REMARK   35  A    between atoms: _84  and  _85
REMARK   36  A    between atoms: _84  and  _87
REMARK   37  A    between atoms: _87  and  _88
REMARK   38  A    between atoms: _88  and  _89
REMARK   39  A    between atoms: _91  and  _93
REMARK   40  A    between atoms: _93  and  _94
REMARK   41  A    between atoms: _93  and  _96
REMARK   42  A    between atoms: _96  and  _97
REMARK   43  A    between atoms: _107  and  _109
REMARK   44  A    between atoms: _109  and  _110
REMARK   45  A    between atoms: _109  and  _112
REMARK   46  A    between atoms: _112  and  _113
REMARK   47  A    between atoms: _113  and  _114
REMARK   48  A    between atoms: _119  and  _121
REMARK   49  A    between atoms: _121  and  _122
REMARK   50  A    between atoms: _121  and  _124
REMARK   51  A    between atoms: _124  and  _125
REMARK   52  A    between atoms: _128  and  _130
REMARK   53  A    between atoms: _130  and  _131
REMARK   54  A    between atoms: _130  and  _133
REMARK   55  A    between atoms: _133  and  _134
REMARK   56  A    between atoms: _144  and  _146
REMARK   57  A    between atoms: _146  and  _147
REMARK   58  A    between atoms: _146  and  _149
REMARK   59  A    between atoms: _149  and  _150
REMARK   60  A    between atoms: _152  and  _154
REMARK   61  A    between atoms: _154  and  _155
REMARK   62  A    between atoms: _154  and  _157
REMARK   63  A    between atoms: _157  and  _158
REMARK   64  A    between atoms: _163  and  _165
REMARK   65  A    between atoms: _165  and  _166
REMARK   66  A    between atoms: _165  and  _168
REMARK   67  A    between atoms: _171  and  _173
REMARK   68  A    between atoms: _173  and  _174
REMARK   69  A    between atoms: _173  and  _176
REMARK   70  A    between atoms: _178  and  _180
REMARK   71  A    between atoms: _180  and  _181
REMARK   72  A    between atoms: _180  and  _183
REMARK   73  A    between atoms: _183  and  _184
REMARK   74  A    between atoms: _189  and  _191
REMARK   75  A    between atoms: _191  and  _192
REMARK   76  A    between atoms: _195  and  _197
REMARK   77  A    between atoms: _197  and  _198
REMARK   78  A    between atoms: _197  and  _200
REMARK   79  A    between atoms: _200  and  _201
REMARK   80  A    between atoms: _203  and  _205
REMARK   81  A    between atoms: _205  and  _206
REMARK   82  A    between atoms: _209  and  _211
REMARK   83  A    between atoms: _211  and  _212
REMARK   84  A    between atoms: _211  and  _214
REMARK   85  A    between atoms: _214  and  _215
REMARK   86  A    between atoms: _225  and  _227
REMARK   87  A    between atoms: _227  and  _228
REMARK   88  A    between atoms: _227  and  _230
REMARK   89  A    between atoms: _230  and  _231
REMARK   90  A    between atoms: _234  and  _236
REMARK   91  A    between atoms: _236  and  _237
REMARK   92  A    between atoms: _236  and  _239
REMARK   93  A    between atoms: _239  and  _240
REMARK   94  A    between atoms: _245  and  _246
REMARK   95  A    between atoms: _248  and  _250
REMARK   96  A    between atoms: _250  and  _251
REMARK   97  A    between atoms: _250  and  _253
REMARK   98  A    between atoms: _253  and  _254
REMARK   99  A    between atoms: _254  and  _255
REMARK  100  A    between atoms: _255  and  _256
REMARK  101  A    between atoms: _265  and  _267
REMARK  102  A    between atoms: _267  and  _268
REMARK  103  A    between atoms: _267  and  _270
REMARK  104  A    between atoms: _270  and  _271
REMARK  105  A    between atoms: _274  and  _276
REMARK  106  A    between atoms: _276  and  _277
REMARK  107  A    between atoms: _276  and  _279
REMARK  108  A    between atoms: _279  and  _280
REMARK  109  A    between atoms: _280  and  _281
REMARK  110  A    between atoms: _281  and  _282
REMARK  111  A    between atoms: _282  and  _283
REMARK  112  A    between atoms: _287  and  _289
REMARK  113  A    between atoms: _289  and  _290
REMARK  114  A    between atoms: _289  and  _292
REMARK  115  A    between atoms: _292  and  _293
REMARK  116  A    between atoms: _293  and  _294
REMARK  117  A    between atoms: _299  and  _301
REMARK  118  A    between atoms: _301  and  _302
REMARK  119  A    between atoms: _301  and  _304
REMARK  120  A    between atoms: _304  and  _305
REMARK  121  A    between atoms: _310  and  _312
REMARK  122  A    between atoms: _312  and  _313
REMARK  123  A    between atoms: _312  and  _315
REMARK  124  A    between atoms: _315  and  _316
REMARK  125  A    between atoms: _319  and  _321
REMARK  126  A    between atoms: _321  and  _322
REMARK  127  A    between atoms: _321  and  _324
REMARK  128  A    between atoms: _324  and  _325
REMARK  129  A    between atoms: _325  and  _326
REMARK  130  A    between atoms: _329  and  _331
REMARK  131  A    between atoms: _331  and  _332
REMARK  132  A    between atoms: _331  and  _334
REMARK  133  A    between atoms: _334  and  _335
REMARK  134  A    between atoms: _338  and  _340
REMARK  135  A    between atoms: _340  and  _341
REMARK  136  A    between atoms: _340  and  _343
REMARK  137  A    between atoms: _346  and  _348
REMARK  138  A    between atoms: _348  and  _349
REMARK  139  A    between atoms: _348  and  _351
REMARK  140  A    between atoms: _354  and  _356
REMARK  141  A    between atoms: _356  and  _357
REMARK  142  A    between atoms: _360  and  _362
REMARK  143  A    between atoms: _362  and  _363
REMARK  144  A    between atoms: _362  and  _365
REMARK  145  A    between atoms: _365  and  _366
REMARK  146  A    between atoms: _371  and  _373
REMARK  147  A    between atoms: _384  and  _387
REMARK  148  A    between atoms: _387  and  _388
REMARK  149  A    between atoms: _388  and  _389
REMARK  150  A    between atoms: _394  and  _397
REMARK  151  A    between atoms: _397  and  _398
REMARK  152  A    between atoms: _398  and  _399
REMARK  153  A    between atoms: _408  and  _409
REMARK  154  A    between atoms: _417  and  _419
REMARK  155  A    between atoms: _419  and  _420
REMARK  156  A    between atoms: _419  and  _422
REMARK  157  A    between atoms: _422  and  _423
REMARK  158  A    between atoms: _426  and  _428
REMARK  159  A    between atoms: _428  and  _429
REMARK  160  A    between atoms: _428  and  _431
REMARK  161  A    between atoms: _431  and  _432
REMARK  162  A    between atoms: _437  and  _438
REMARK  163  A    between atoms: _440  and  _442
REMARK  164  A    between atoms: _442  and  _443
REMARK  165  A    between atoms: _442  and  _445
REMARK  166  A    between atoms: _445  and  _446
REMARK  167  A    between atoms: _452  and  _454
REMARK  168  A    between atoms: _454  and  _455
REMARK  169  A    between atoms: _454  and  _457
REMARK  170  A    between atoms: _457  and  _458
REMARK  171  A    between atoms: _463  and  _464
REMARK  172  A    between atoms: _466  and  _468
REMARK  173  A    between atoms: _468  and  _469
REMARK  174  A    between atoms: _468  and  _471
REMARK  175  A    between atoms: _471  and  _472
REMARK  176  A    between atoms: _472  and  _473
REMARK  177  A    between atoms: _473  and  _474
REMARK  178  A    between atoms: _483  and  _485
REMARK  179  A    between atoms: _485  and  _486
REMARK  180  A    between atoms: _485  and  _488
REMARK  181  A    between atoms: _488  and  _489
REMARK  182  A    between atoms: _489  and  _490
REMARK  183  A    between atoms: _493  and  _495
REMARK  184  A    between atoms: _495  and  _496
REMARK  185  A    between atoms: _498  and  _500
REMARK  186  A    between atoms: _500  and  _501
REMARK  187  A    between atoms: _500  and  _503
REMARK  188  A    between atoms: _503  and  _504
REMARK  189  A    between atoms: _510  and  _511
REMARK  190  A    between atoms: _516  and  _518
REMARK  191  A    between atoms: _518  and  _519
REMARK  192  A    between atoms: _521  and  _523
REMARK  193  A    between atoms: _523  and  _524
REMARK  194  A    between atoms: _523  and  _526
REMARK  195  A    between atoms: _526  and  _527
REMARK  196  A    between atoms: _533  and  _535
REMARK  197  A    between atoms: _535  and  _536
REMARK  198  A    between atoms: _535  and  _538
REMARK  199  A    between atoms: _538  and  _539
REMARK  200  A    between atoms: _544  and  _546
REMARK  201  A    between atoms: _546  and  _547
REMARK  202  A    between atoms: _546  and  _549
REMARK  203  A    between atoms: _549  and  _550
REMARK  204  A    between atoms: _550  and  _551
REMARK  205  A    between atoms: _551  and  _552
REMARK  206  A    between atoms: _552  and  ZN_793
REMARK  207  A    between atoms: _554  and  _556
REMARK  208  A    between atoms: _556  and  _557
REMARK  209  A    between atoms: _560  and  _562
REMARK  210  A    between atoms: _562  and  _563
REMARK  211  A    between atoms: _562  and  _565
REMARK  212  A    between atoms: _565  and  _566
REMARK  213  A    between atoms: _569  and  _571
REMARK  214  A    between atoms: _571  and  _572
REMARK  215  A    between atoms: _575  and  _577
REMARK  216  A    between atoms: _577  and  _578
REMARK  217  A    between atoms: _577  and  _580
REMARK  218  A    between atoms: _580  and  _581
REMARK  219  A    between atoms: _584  and  _586
REMARK  220  A    between atoms: _586  and  _587
REMARK  221  A    between atoms: _586  and  _589
REMARK  222  A    between atoms: _589  and  _590
REMARK  223  A    between atoms: _590  and  _591
REMARK  224  A    between atoms: _591  and  _592
REMARK  225  A    between atoms: _592  and  _593
REMARK  226  A    between atoms: _597  and  _599
REMARK  227  A    between atoms: _599  and  _600
REMARK  228  A    between atoms: _599  and  _602
REMARK  229  A    between atoms: _602  and  _603
REMARK  230  A    between atoms: _609  and  _611
REMARK  231  A    between atoms: _611  and  _612
REMARK  232  A    between atoms: _611  and  _614
REMARK  233  A    between atoms: _614  and  _615
REMARK  234  A    between atoms: _621  and  _623
REMARK  235  A    between atoms: _623  and  _624
REMARK  236  A    between atoms: _623  and  _626
REMARK  237  A    between atoms: _626  and  _627
REMARK  238  A    between atoms: _629  and  _631
REMARK  239  A    between atoms: _631  and  _632
REMARK  240  A    between atoms: _631  and  _634
REMARK  241  A    between atoms: _637  and  _639
REMARK  242  A    between atoms: _639  and  _640
REMARK  243  A    between atoms: _639  and  _642
REMARK  244  A    between atoms: _642  and  _643
REMARK  245  A    between atoms: _643  and  _644
REMARK  246  A    between atoms: _644  and  _645
REMARK  247  A    between atoms: _645  and  _646
REMARK  248  A    between atoms: _650  and  _652
REMARK  249  A    between atoms: _652  and  _653
REMARK  250  A    between atoms: _652  and  _655
REMARK  251  A    between atoms: _655  and  _656
REMARK  252  A    between atoms: _662  and  _664
REMARK  253  A    between atoms: _664  and  _665
REMARK  254  A    between atoms: _664  and  _667
REMARK  255  A    between atoms: _667  and  _668
REMARK  256  A    between atoms: _673  and  _675
REMARK  257  A    between atoms: _675  and  _676
REMARK  258  A    between atoms: _675  and  _678
REMARK  259  A    between atoms: _678  and  _679
REMARK  260  A    between atoms: _681  and  _683
REMARK  261  A    between atoms: _683  and  _684
REMARK  262  A    between atoms: _683  and  _686
REMARK  263  A    between atoms: _686  and  _687
REMARK  264  A    between atoms: _689  and  _691
REMARK  265  A    between atoms: _691  and  _692
REMARK  266  A    between atoms: _691  and  _694
REMARK  267  A    between atoms: _698  and  _699
REMARK  268  A    between atoms: _704  and  _706
REMARK  269  A    between atoms: _706  and  _707
REMARK  270  A    between atoms: _706  and  _709
REMARK  271  A    between atoms: _709  and  _710
REMARK  272  A    between atoms: _715  and  _716
REMARK  273  A    between atoms: _718  and  _720
REMARK  274  A    between atoms: _720  and  _721
REMARK  275  A    between atoms: _720  and  _723
REMARK  276  A    between atoms: _723  and  _724
REMARK  277  A    between atoms: _724  and  _725
REMARK  278  A    between atoms: _725  and  _726
REMARK  279  A    between atoms: _735  and  _737
REMARK  280  A    between atoms: _737  and  _738
REMARK  281  A    between atoms: _737  and  _740
REMARK  282  A    between atoms: _740  and  _741
REMARK  283  A    between atoms: _746  and  _747
REMARK  284  A    between atoms: _749  and  _751
REMARK  285  A    between atoms: _751  and  _752
REMARK  286  A    between atoms: _751  and  _754
REMARK  287  A    between atoms: _754  and  _755
REMARK  288  A    between atoms: _761  and  _763
REMARK  289  A    between atoms: _763  and  _764
REMARK  290  A    between atoms: _763  and  _766
REMARK  291  A    between atoms: _766  and  _767
REMARK  292  A    between atoms: _769  and  _771
REMARK  293  A    between atoms: _771  and  _772
REMARK  294  A    between atoms: _771  and  _774
REMARK  295  A    between atoms: _774  and  _775
REMARK  296  A    between atoms: _781  and  _783
REMARK  297  A    between atoms: _783  and  _784
REMARK  298  A    between atoms: _783  and  _786
REMARK  299  A    between atoms: _786  and  _787
REMARK  300  A    between atoms: _787  and  _788
REMARK                            x       y       z     vdW  Elec       q    Type
REMARK                         _______ _______ _______ _____ _____    ______ ____
ROOT
ATOM      1  O   HOH     1      18.549  -8.122 -30.348  0.00  0.00    +0.000 OA
ENDROOT
TORSDOF 0
REMARK  Name = ../refined-set-2016/4ca5/4ca5_pocket.pdb
REMARK  300 active torsions:
REMARK  status: ('A' for Active; 'I' for Inactive)
REMARK    1  A    between atoms: _1  and  _3
REMARK    2  A    between atoms: _3  and  _4
REMARK    3  A    between atoms: _3  and  _6
REMARK    4  A    between atoms: _6  and  _7
REMARK    5  A    between atoms: _12  and  _14
REMARK    6  A    between atoms: _14  and  _15
REMARK    7  A    between atoms: _14  and  _17
REMARK    8  A    between atoms: _17  and  _18
REMARK    9  A    between atoms: _23  and  _25
REMARK   10  A    between atoms: _25  and  _26
REMARK   11  A    between atoms: _25  and  _28
REMARK   12  A    between atoms: _28  and  _29
REMARK   13  A    between atoms: _29  and  _30
REMARK   14  A    between atoms: _33  and  _35
REMARK   15  A    between atoms: _35  and  _36
REMARK   16  A    between atoms: _35  and  _38
REMARK   17  A    between atoms: _38  and  _39
REMARK   18  A    between atoms: _44  and  _45
REMARK   19  A    between atoms: _47  and  _49
REMARK   20  A    between atoms: _49  and  _50
REMARK   21  A    between atoms: _49  and  _52
REMARK   22  A    between atoms: _52  and  _53
REMARK   23  A    between atoms: _53  and  _54
REMARK   24  A    between atoms: _57  and  _59
REMARK   25  A    between atoms: _59  and  _60
REMARK   26  A    between atoms: _59  and  _62
REMARK   27  A    between atoms: _62  and  _63
REMARK   28  A    between atoms: _66  and  _68
REMARK   29  A    between atoms: _68  and  _69
REMARK   30  A    between atoms: _71  and  _73
REMARK   31  A    between atoms: _73  and  _74
REMARK   32  A    between atoms: _73  and  _76
REMARK   33  A    between atoms: _76  and  _77
REMARK   34  A    between atoms: _82  and  _84
REMARK   35  A    between atoms: _84  and  _85
REMARK   36  A    between atoms: _84  and  _87
REMARK   37  A    between atoms: _87  and  _88
REMARK   38  A    between atoms: _88  and  _89
REMARK   39  A    between atoms: _91  and  _93
REMARK   40  A    between atoms: _93  and  _94
REMARK   41  A    between atoms: _93  and  _96
REMARK   42  A    between atoms: _96  and  _97
REMARK   43  A    between atoms: _107  and  _109
REMARK   44  A    between atoms: _109  and  _110
REMARK   45  A    between atoms: _109  and  _112
REMARK   46  A    between atoms: _112  and  _113
REMARK   47  A    between atoms: _113  and  _114
REMARK   48  A    between atoms: _119  and  _121
REMARK   49  A    between atoms: _121  and  _122
REMARK   50  A    between atoms: _121  and  _124
REMARK   51  A    between atoms: _124  and  _125
REMARK   52  A    between atoms: _128  and  _130
REMARK   53  A    between atoms: _130  and  _131
REMARK   54  A    between atoms: _130  and  _133
REMARK   55  A    between atoms: _133  and  _134
REMARK   56  A    between atoms: _144  and  _146
REMARK   57  A    between atoms: _146  and  _147
REMARK   58  A    between atoms: _146  and  _149
REMARK   59  A    between atoms: _149  and  _150
REMARK   60  A    between atoms: _152  and  _154
REMARK   61  A    between atoms: _154  and  _155
REMARK   62  A    between atoms: _154  and  _157
REMARK   63  A    between atoms: _157  and  _158
REMARK   64  A    between atoms: _163  and  _165
REMARK   65  A    between atoms: _165  and  _166
REMARK   66  A    between atoms: _165  and  _168
REMARK   67  A    between atoms: _171  and  _173
REMARK   68  A    between atoms: _173  and  _174
REMARK   69  A    between atoms: _173  and  _176
REMARK   70  A    between atoms: _178  and  _180
REMARK   71  A    between atoms: _180  and  _181
REMARK   72  A    between atoms: _180  and  _183
REMARK   73  A    between atoms: _183  and  _184
REMARK   74  A    between atoms: _189  and  _191
REMARK   75  A    between atoms: _191  and  _192
REMARK   76  A    between atoms: _195  and  _197
REMARK   77  A    between atoms: _197  and  _198
REMARK   78  A    between atoms: _197  and  _200
REMARK   79  A    between atoms: _200  and  _201
REMARK   80  A    between atoms: _203  and  _205
REMARK   81  A    between atoms: _205  and  _206
REMARK   82  A    between atoms: _209  and  _211
REMARK   83  A    between atoms: _211  and  _212
REMARK   84  A    between atoms: _211  and  _214
REMARK   85  A    between atoms: _214  and  _215
REMARK   86  A    between atoms: _225  and  _227
REMARK   87  A    between atoms: _227  and  _228
REMARK   88  A    between atoms: _227  and  _230
REMARK   89  A    between atoms: _230  and  _231
REMARK   90  A    between atoms: _234  and  _236
REMARK   91  A    between atoms: _236  and  _237
REMARK   92  A    between atoms: _236  and  _239
REMARK   93  A    between atoms: _239  and  _240
REMARK   94  A    between atoms: _245  and  _246
REMARK   95  A    between atoms: _248  and  _250
REMARK   96  A    between atoms: _250  and  _251
REMARK   97  A    between atoms: _250  and  _253
REMARK   98  A    between atoms: _253  and  _254
REMARK   99  A    between atoms: _254  and  _255
REMARK  100  A    between atoms: _255  and  _256
REMARK  101  A    between atoms: _265  and  _267
REMARK  102  A    between atoms: _267  and  _268
REMARK  103  A    between atoms: _267  and  _270
REMARK  104  A    between atoms: _270  and  _271
REMARK  105  A    between atoms: _274  and  _276
REMARK  106  A    between atoms: _276  and  _277
REMARK  107  A    between atoms: _276  and  _279
REMARK  108  A    between atoms: _279  and  _280
REMARK  109  A    between atoms: _280  and  _281
REMARK  110  A    between atoms: _281  and  _282
REMARK  111  A    between atoms: _282  and  _283
REMARK  112  A    between atoms: _287  and  _289
REMARK  113  A    between atoms: _289  and  _290
REMARK  114  A    between atoms: _289  and  _292
REMARK  115  A    between atoms: _292  and  _293
REMARK  116  A    between atoms: _293  and  _294
REMARK  117  A    between atoms: _299  and  _301
REMARK  118  A    between atoms: _301  and  _302
REMARK  119  A    between atoms: _301  and  _304
REMARK  120  A    between atoms: _304  and  _305
REMARK  121  A    between atoms: _310  and  _312
REMARK  122  A    between atoms: _312  and  _313
REMARK  123  A    between atoms: _312  and  _315
REMARK  124  A    between atoms: _315  and  _316
REMARK  125  A    between atoms: _319  and  _321
REMARK  126  A    between atoms: _321  and  _322
REMARK  127  A    between atoms: _321  and  _324
REMARK  128  A    between atoms: _324  and  _325
REMARK  129  A    between atoms: _325  and  _326
REMARK  130  A    between atoms: _329  and  _331
REMARK  131  A    between atoms: _331  and  _332
REMARK  132  A    between atoms: _331  and  _334
REMARK  133  A    between atoms: _334  and  _335
REMARK  134  A    between atoms: _338  and  _340
REMARK  135  A    between atoms: _340  and  _341
REMARK  136  A    between atoms: _340  and  _343
REMARK  137  A    between atoms: _346  and  _348
REMARK  138  A    between atoms: _348  and  _349
REMARK  139  A    between atoms: _348  and  _351
REMARK  140  A    between atoms: _354  and  _356
REMARK  141  A    between atoms: _356  and  _357
REMARK  142  A    between atoms: _360  and  _362
REMARK  143  A    between atoms: _362  and  _363
REMARK  144  A    between atoms: _362  and  _365
REMARK  145  A    between atoms: _365  and  _366
REMARK  146  A    between atoms: _371  and  _373
REMARK  147  A    between atoms: _384  and  _387
REMARK  148  A    between atoms: _387  and  _388
REMARK  149  A    between atoms: _388  and  _389
REMARK  150  A    between atoms: _394  and  _397
REMARK  151  A    between atoms: _397  and  _398
REMARK  152  A    between atoms: _398  and  _399
REMARK  153  A    between atoms: _408  and  _409
REMARK  154  A    between atoms: _417  and  _419
REMARK  155  A    between atoms: _419  and  _420
REMARK  156  A    between atoms: _419  and  _422
REMARK  157  A    between atoms: _422  and  _423
REMARK  158  A    between atoms: _426  and  _428
REMARK  159  A    between atoms: _428  and  _429
REMARK  160  A    between atoms: _428  and  _431
REMARK  161  A    between atoms: _431  and  _432
REMARK  162  A    between atoms: _437  and  _438
REMARK  163  A    between atoms: _440  and  _442
REMARK  164  A    between atoms: _442  and  _443
REMARK  165  A    between atoms: _442  and  _445
REMARK  166  A    between atoms: _445  and  _446
REMARK  167  A    between atoms: _452  and  _454
REMARK  168  A    between atoms: _454  and  _455
REMARK  169  A    between atoms: _454  and  _457
REMARK  170  A    between atoms: _457  and  _458
REMARK  171  A    between atoms: _463  and  _464
REMARK  172  A    between atoms: _466  and  _468
REMARK  173  A    between atoms: _468  and  _469
REMARK  174  A    between atoms: _468  and  _471
REMARK  175  A    between atoms: _471  and  _472
REMARK  176  A    between atoms: _472  and  _473
REMARK  177  A    between atoms: _473  and  _474
REMARK  178  A    between atoms: _483  and  _485
REMARK  179  A    between atoms: _485  and  _486
REMARK  180  A    between atoms: _485  and  _488
REMARK  181  A    between atoms: _488  and  _489
REMARK  182  A    between atoms: _489  and  _490
REMARK  183  A    between atoms: _493  and  _495
REMARK  184  A    between atoms: _495  and  _496
REMARK  185  A    between atoms: _498  and  _500
REMARK  186  A    between atoms: _500  and  _501
REMARK  187  A    between atoms: _500  and  _503
REMARK  188  A    between atoms: _503  and  _504
REMARK  189  A    between atoms: _510  and  _511
REMARK  190  A    between atoms: _516  and  _518
REMARK  191  A    between atoms: _518  and  _519
REMARK  192  A    between atoms: _521  and  _523
REMARK  193  A    between atoms: _523  and  _524
REMARK  194  A    between atoms: _523  and  _526
REMARK  195  A    between atoms: _526  and  _527
REMARK  196  A    between atoms: _533  and  _535
REMARK  197  A    between atoms: _535  and  _536
REMARK  198  A    between atoms: _535  and  _538
REMARK  199  A    between atoms: _538  and  _539
REMARK  200  A    between atoms: _544  and  _546
REMARK  201  A    between atoms: _546  and  _547
REMARK  202  A    between atoms: _546  and  _549
REMARK  203  A    between atoms: _549  and  _550
REMARK  204  A    between atoms: _550  and  _551
REMARK  205  A    between atoms: _551  and  _552
REMARK  206  A    between atoms: _552  and  ZN_793
REMARK  207  A    between atoms: _554  and  _556
REMARK  208  A    between atoms: _556  and  _557
REMARK  209  A    between atoms: _560  and  _562
REMARK  210  A    between atoms: _562  and  _563
REMARK  211  A    between atoms: _562  and  _565
REMARK  212  A    between atoms: _565  and  _566
REMARK  213  A    between atoms: _569  and  _571
REMARK  214  A    between atoms: _571  and  _572
REMARK  215  A    between atoms: _575  and  _577
REMARK  216  A    between atoms: _577  and  _578
REMARK  217  A    between atoms: _577  and  _580
REMARK  218  A    between atoms: _580  and  _581
REMARK  219  A    between atoms: _584  and  _586
REMARK  220  A    between atoms: _586  and  _587
REMARK  221  A    between atoms: _586  and  _589
REMARK  222  A    between atoms: _589  and  _590
REMARK  223  A    between atoms: _590  and  _591
REMARK  224  A    between atoms: _591  and  _592
REMARK  225  A    between atoms: _592  and  _593
REMARK  226  A    between atoms: _597  and  _599
REMARK  227  A    between atoms: _599  and  _600
REMARK  228  A    between atoms: _599  and  _602
REMARK  229  A    between atoms: _602  and  _603
REMARK  230  A    between atoms: _609  and  _611
REMARK  231  A    between atoms: _611  and  _612
REMARK  232  A    between atoms: _611  and  _614
REMARK  233  A    between atoms: _614  and  _615
REMARK  234  A    between atoms: _621  and  _623
REMARK  235  A    between atoms: _623  and  _624
REMARK  236  A    between atoms: _623  and  _626
REMARK  237  A    between atoms: _626  and  _627
REMARK  238  A    between atoms: _629  and  _631
REMARK  239  A    between atoms: _631  and  _632
REMARK  240  A    between atoms: _631  and  _634
REMARK  241  A    between atoms: _637  and  _639
REMARK  242  A    between atoms: _639  and  _640
REMARK  243  A    between atoms: _639  and  _642
REMARK  244  A    between atoms: _642  and  _643
REMARK  245  A    between atoms: _643  and  _644
REMARK  246  A    between atoms: _644  and  _645
REMARK  247  A    between atoms: _645  and  _646
REMARK  248  A    between atoms: _650  and  _652
REMARK  249  A    between atoms: _652  and  _653
REMARK  250  A    between atoms: _652  and  _655
REMARK  251  A    between atoms: _655  and  _656
REMARK  252  A    between atoms: _662  and  _664
REMARK  253  A    between atoms: _664  and  _665
REMARK  254  A    between atoms: _664  and  _667
REMARK  255  A    between atoms: _667  and  _668
REMARK  256  A    between atoms: _673  and  _675
REMARK  257  A    between atoms: _675  and  _676
REMARK  258  A    between atoms: _675  and  _678
REMARK  259  A    between atoms: _678  and  _679
REMARK  260  A    between atoms: _681  and  _683
REMARK  261  A    between atoms: _683  and  _684
REMARK  262  A    between atoms: _683  and  _686
REMARK  263  A    between atoms: _686  and  _687
REMARK  264  A    between atoms: _689  and  _691
REMARK  265  A    between atoms: _691  and  _692
REMARK  266  A    between atoms: _691  and  _694
REMARK  267  A    between atoms: _698  and  _699
REMARK  268  A    between atoms: _704  and  _706
REMARK  269  A    between atoms: _706  and  _707
REMARK  270  A    between atoms: _706  and  _709
REMARK  271  A    between atoms: _709  and  _710
REMARK  272  A    between atoms: _715  and  _716
REMARK  273  A    between atoms: _718  and  _720
REMARK  274  A    between atoms: _720  and  _721
REMARK  275  A    between atoms: _720  and  _723
REMARK  276  A    between atoms: _723  and  _724
REMARK  277  A    between atoms: _724  and  _725
REMARK  278  A    between atoms: _725  and  _726
REMARK  279  A    between atoms: _735  and  _737
REMARK  280  A    between atoms: _737  and  _738
REMARK  281  A    between atoms: _737  and  _740
REMARK  282  A    between atoms: _740  and  _741
REMARK  283  A    between atoms: _746  and  _747
REMARK  284  A    between atoms: _749  and  _751
REMARK  285  A    between atoms: _751  and  _752
REMARK  286  A    between atoms: _751  and  _754
REMARK  287  A    between atoms: _754  and  _755
REMARK  288  A    between atoms: _761  and  _763
REMARK  289  A    between atoms: _763  and  _764
REMARK  290  A    between atoms: _763  and  _766
REMARK  291  A    between atoms: _766  and  _767
REMARK  292  A    between atoms: _769  and  _771
REMARK  293  A    between atoms: _771  and  _772
REMARK  294  A    between atoms: _771  and  _774
REMARK  295  A    between atoms: _774  and  _775
REMARK  296  A    between atoms: _781  and  _783
REMARK  297  A    between atoms: _783  and  _784
REMARK  298  A    between atoms: _783  and  _786
REMARK  299  A    between atoms: _786  and  _787
REMARK  300  A    between atoms: _787  and  _788
REMARK                            x       y       z     vdW  Elec       q    Type
REMARK                         _______ _______ _______ _____ _____    ______ ____
ROOT
ATOM      1  O   HOH     1      11.262 -12.475 -24.746  0.00  0.00    +0.000 OA
ENDROOT
TORSDOF 0
REMARK  Name = ../refined-set-2016/4ca5/4ca5_pocket.pdb
REMARK  300 active torsions:
REMARK  status: ('A' for Active; 'I' for Inactive)
REMARK    1  A    between atoms: _1  and  _3
REMARK    2  A    between atoms: _3  and  _4
REMARK    3  A    between atoms: _3  and  _6
REMARK    4  A    between atoms: _6  and  _7
REMARK    5  A    between atoms: _12  and  _14
REMARK    6  A    between atoms: _14  and  _15
REMARK    7  A    between atoms: _14  and  _17
REMARK    8  A    between atoms: _17  and  _18
REMARK    9  A    between atoms: _23  and  _25
REMARK   10  A    between atoms: _25  and  _26
REMARK   11  A    between atoms: _25  and  _28
REMARK   12  A    between atoms: _28  and  _29
REMARK   13  A    between atoms: _29  and  _30
REMARK   14  A    between atoms: _33  and  _35
REMARK   15  A    between atoms: _35  and  _36
REMARK   16  A    between atoms: _35  and  _38
REMARK   17  A    between atoms: _38  and  _39
REMARK   18  A    between atoms: _44  and  _45
REMARK   19  A    between atoms: _47  and  _49
REMARK   20  A    between atoms: _49  and  _50
REMARK   21  A    between atoms: _49  and  _52
REMARK   22  A    between atoms: _52  and  _53
REMARK   23  A    between atoms: _53  and  _54
REMARK   24  A    between atoms: _57  and  _59
REMARK   25  A    between atoms: _59  and  _60
REMARK   26  A    between atoms: _59  and  _62
REMARK   27  A    between atoms: _62  and  _63
REMARK   28  A    between atoms: _66  and  _68
REMARK   29  A    between atoms: _68  and  _69
REMARK   30  A    between atoms: _71  and  _73
REMARK   31  A    between atoms: _73  and  _74
REMARK   32  A    between atoms: _73  and  _76
REMARK   33  A    between atoms: _76  and  _77
REMARK   34  A    between atoms: _82  and  _84
REMARK   35  A    between atoms: _84  and  _85
REMARK   36  A    between atoms: _84  and  _87
REMARK   37  A    between atoms: _87  and  _88
REMARK   38  A    between atoms: _88  and  _89
REMARK   39  A    between atoms: _91  and  _93
REMARK   40  A    between atoms: _93  and  _94
REMARK   41  A    between atoms: _93  and  _96
REMARK   42  A    between atoms: _96  and  _97
REMARK   43  A    between atoms: _107  and  _109
REMARK   44  A    between atoms: _109  and  _110
REMARK   45  A    between atoms: _109  and  _112
REMARK   46  A    between atoms: _112  and  _113
REMARK   47  A    between atoms: _113  and  _114
REMARK   48  A    between atoms: _119  and  _121
REMARK   49  A    between atoms: _121  and  _122
REMARK   50  A    between atoms: _121  and  _124
REMARK   51  A    between atoms: _124  and  _125
REMARK   52  A    between atoms: _128  and  _130
REMARK   53  A    between atoms: _130  and  _131
REMARK   54  A    between atoms: _130  and  _133
REMARK   55  A    between atoms: _133  and  _134
REMARK   56  A    between atoms: _144  and  _146
REMARK   57  A    between atoms: _146  and  _147
REMARK   58  A    between atoms: _146  and  _149
REMARK   59  A    between atoms: _149  and  _150
REMARK   60  A    between atoms: _152  and  _154
REMARK   61  A    between atoms: _154  and  _155
REMARK   62  A    between atoms: _154  and  _157
REMARK   63  A    between atoms: _157  and  _158
REMARK   64  A    between atoms: _163  and  _165
REMARK   65  A    between atoms: _165  and  _166
REMARK   66  A    between atoms: _165  and  _168
REMARK   67  A    between atoms: _171  and  _173
REMARK   68  A    between atoms: _173  and  _174
REMARK   69  A    between atoms: _173  and  _176
REMARK   70  A    between atoms: _178  and  _180
REMARK   71  A    between atoms: _180  and  _181
REMARK   72  A    between atoms: _180  and  _183
REMARK   73  A    between atoms: _183  and  _184
REMARK   74  A    between atoms: _189  and  _191
REMARK   75  A    between atoms: _191  and  _192
REMARK   76  A    between atoms: _195  and  _197
REMARK   77  A    between atoms: _197  and  _198
REMARK   78  A    between atoms: _197  and  _200
REMARK   79  A    between atoms: _200  and  _201
REMARK   80  A    between atoms: _203  and  _205
REMARK   81  A    between atoms: _205  and  _206
REMARK   82  A    between atoms: _209  and  _211
REMARK   83  A    between atoms: _211  and  _212
REMARK   84  A    between atoms: _211  and  _214
REMARK   85  A    between atoms: _214  and  _215
REMARK   86  A    between atoms: _225  and  _227
REMARK   87  A    between atoms: _227  and  _228
REMARK   88  A    between atoms: _227  and  _230
REMARK   89  A    between atoms: _230  and  _231
REMARK   90  A    between atoms: _234  and  _236
REMARK   91  A    between atoms: _236  and  _237
REMARK   92  A    between atoms: _236  and  _239
REMARK   93  A    between atoms: _239  and  _240
REMARK   94  A    between atoms: _245  and  _246
REMARK   95  A    between atoms: _248  and  _250
REMARK   96  A    between atoms: _250  and  _251
REMARK   97  A    between atoms: _250  and  _253
REMARK   98  A    between atoms: _253  and  _254
REMARK   99  A    between atoms: _254  and  _255
REMARK  100  A    between atoms: _255  and  _256
REMARK  101  A    between atoms: _265  and  _267
REMARK  102  A    between atoms: _267  and  _268
REMARK  103  A    between atoms: _267  and  _270
REMARK  104  A    between atoms: _270  and  _271
REMARK  105  A    between atoms: _274  and  _276
REMARK  106  A    between atoms: _276  and  _277
REMARK  107  A    between atoms: _276  and  _279
REMARK  108  A    between atoms: _279  and  _280
REMARK  109  A    between atoms: _280  and  _281
REMARK  110  A    between atoms: _281  and  _282
REMARK  111  A    between atoms: _282  and  _283
REMARK  112  A    between atoms: _287  and  _289
REMARK  113  A    between atoms: _289  and  _290
REMARK  114  A    between atoms: _289  and  _292
REMARK  115  A    between atoms: _292  and  _293
REMARK  116  A    between atoms: _293  and  _294
REMARK  117  A    between atoms: _299  and  _301
REMARK  118  A    between atoms: _301  and  _302
REMARK  119  A    between atoms: _301  and  _304
REMARK  120  A    between atoms: _304  and  _305
REMARK  121  A    between atoms: _310  and  _312
REMARK  122  A    between atoms: _312  and  _313
REMARK  123  A    between atoms: _312  and  _315
REMARK  124  A    between atoms: _315  and  _316
REMARK  125  A    between atoms: _319  and  _321
REMARK  126  A    between atoms: _321  and  _322
REMARK  127  A    between atoms: _321  and  _324
REMARK  128  A    between atoms: _324  and  _325
REMARK  129  A    between atoms: _325  and  _326
REMARK  130  A    between atoms: _329  and  _331
REMARK  131  A    between atoms: _331  and  _332
REMARK  132  A    between atoms: _331  and  _334
REMARK  133  A    between atoms: _334  and  _335
REMARK  134  A    between atoms: _338  and  _340
REMARK  135  A    between atoms: _340  and  _341
REMARK  136  A    between atoms: _340  and  _343
REMARK  137  A    between atoms: _346  and  _348
REMARK  138  A    between atoms: _348  and  _349
REMARK  139  A    between atoms: _348  and  _351
REMARK  140  A    between atoms: _354  and  _356
REMARK  141  A    between atoms: _356  and  _357
REMARK  142  A    between atoms: _360  and  _362
REMARK  143  A    between atoms: _362  and  _363
REMARK  144  A    between atoms: _362  and  _365
REMARK  145  A    between atoms: _365  and  _366
REMARK  146  A    between atoms: _371  and  _373
REMARK  147  A    between atoms: _384  and  _387
REMARK  148  A    between atoms: _387  and  _388
REMARK  149  A    between atoms: _388  and  _389
REMARK  150  A    between atoms: _394  and  _397
REMARK  151  A    between atoms: _397  and  _398
REMARK  152  A    between atoms: _398  and  _399
REMARK  153  A    between atoms: _408  and  _409
REMARK  154  A    between atoms: _417  and  _419
REMARK  155  A    between atoms: _419  and  _420
REMARK  156  A    between atoms: _419  and  _422
REMARK  157  A    between atoms: _422  and  _423
REMARK  158  A    between atoms: _426  and  _428
REMARK  159  A    between atoms: _428  and  _429
REMARK  160  A    between atoms: _428  and  _431
REMARK  161  A    between atoms: _431  and  _432
REMARK  162  A    between atoms: _437  and  _438
REMARK  163  A    between atoms: _440  and  _442
REMARK  164  A    between atoms: _442  and  _443
REMARK  165  A    between atoms: _442  and  _445
REMARK  166  A    between atoms: _445  and  _446
REMARK  167  A    between atoms: _452  and  _454
REMARK  168  A    between atoms: _454  and  _455
REMARK  169  A    between atoms: _454  and  _457
REMARK  170  A    between atoms: _457  and  _458
REMARK  171  A    between atoms: _463  and  _464
REMARK  172  A    between atoms: _466  and  _468
REMARK  173  A    between atoms: _468  and  _469
REMARK  174  A    between atoms: _468  and  _471
REMARK  175  A    between atoms: _471  and  _472
REMARK  176  A    between atoms: _472  and  _473
REMARK  177  A    between atoms: _473  and  _474
REMARK  178  A    between atoms: _483  and  _485
REMARK  179  A    between atoms: _485  and  _486
REMARK  180  A    between atoms: _485  and  _488
REMARK  181  A    between atoms: _488  and  _489
REMARK  182  A    between atoms: _489  and  _490
REMARK  183  A    between atoms: _493  and  _495
REMARK  184  A    between atoms: _495  and  _496
REMARK  185  A    between atoms: _498  and  _500
REMARK  186  A    between atoms: _500  and  _501
REMARK  187  A    between atoms: _500  and  _503
REMARK  188  A    between atoms: _503  and  _504
REMARK  189  A    between atoms: _510  and  _511
REMARK  190  A    between atoms: _516  and  _518
REMARK  191  A    between atoms: _518  and  _519
REMARK  192  A    between atoms: _521  and  _523
REMARK  193  A    between atoms: _523  and  _524
REMARK  194  A    between atoms: _523  and  _526
REMARK  195  A    between atoms: _526  and  _527
REMARK  196  A    between atoms: _533  and  _535
REMARK  197  A    between atoms: _535  and  _536
REMARK  198  A    between atoms: _535  and  _538
REMARK  199  A    between atoms: _538  and  _539
REMARK  200  A    between atoms: _544  and  _546
REMARK  201  A    between atoms: _546  and  _547
REMARK  202  A    between atoms: _546  and  _549
REMARK  203  A    between atoms: _549  and  _550
REMARK  204  A    between atoms: _550  and  _551
REMARK  205  A    between atoms: _551  and  _552
REMARK  206  A    between atoms: _552  and  ZN_793
REMARK  207  A    between atoms: _554  and  _556
REMARK  208  A    between atoms: _556  and  _557
REMARK  209  A    between atoms: _560  and  _562
REMARK  210  A    between atoms: _562  and  _563
REMARK  211  A    between atoms: _562  and  _565
REMARK  212  A    between atoms: _565  and  _566
REMARK  213  A    between atoms: _569  and  _571
REMARK  214  A    between atoms: _571  and  _572
REMARK  215  A    between atoms: _575  and  _577
REMARK  216  A    between atoms: _577  and  _578
REMARK  217  A    between atoms: _577  and  _580
REMARK  218  A    between atoms: _580  and  _581
REMARK  219  A    between atoms: _584  and  _586
REMARK  220  A    between atoms: _586  and  _587
REMARK  221  A    between atoms: _586  and  _589
REMARK  222  A    between atoms: _589  and  _590
REMARK  223  A    between atoms: _590  and  _591
REMARK  224  A    between atoms: _591  and  _592
REMARK  225  A    between atoms: _592  and  _593
REMARK  226  A    between atoms: _597  and  _599
REMARK  227  A    between atoms: _599  and  _600
REMARK  228  A    between atoms: _599  and  _602
REMARK  229  A    between atoms: _602  and  _603
REMARK  230  A    between atoms: _609  and  _611
REMARK  231  A    between atoms: _611  and  _612
REMARK  232  A    between atoms: _611  and  _614
REMARK  233  A    between atoms: _614  and  _615
REMARK  234  A    between atoms: _621  and  _623
REMARK  235  A    between atoms: _623  and  _624
REMARK  236  A    between atoms: _623  and  _626
REMARK  237  A    between atoms: _626  and  _627
REMARK  238  A    between atoms: _629  and  _631
REMARK  239  A    between atoms: _631  and  _632
REMARK  240  A    between atoms: _631  and  _634
REMARK  241  A    between atoms: _637  and  _639
REMARK  242  A    between atoms: _639  and  _640
REMARK  243  A    between atoms: _639  and  _642
REMARK  244  A    between atoms: _642  and  _643
REMARK  245  A    between atoms: _643  and  _644
REMARK  246  A    between atoms: _644  and  _645
REMARK  247  A    between atoms: _645  and  _646
REMARK  248  A    between atoms: _650  and  _652
REMARK  249  A    between atoms: _652  and  _653
REMARK  250  A    between atoms: _652  and  _655
REMARK  251  A    between atoms: _655  and  _656
REMARK  252  A    between atoms: _662  and  _664
REMARK  253  A    between atoms: _664  and  _665
REMARK  254  A    between atoms: _664  and  _667
REMARK  255  A    between atoms: _667  and  _668
REMARK  256  A    between atoms: _673  and  _675
REMARK  257  A    between atoms: _675  and  _676
REMARK  258  A    between atoms: _675  and  _678
REMARK  259  A    between atoms: _678  and  _679
REMARK  260  A    between atoms: _681  and  _683
REMARK  261  A    between atoms: _683  and  _684
REMARK  262  A    between atoms: _683  and  _686
REMARK  263  A    between atoms: _686  and  _687
REMARK  264  A    between atoms: _689  and  _691
REMARK  265  A    between atoms: _691  and  _692
REMARK  266  A    between atoms: _691  and  _694
REMARK  267  A    between atoms: _698  and  _699
REMARK  268  A    between atoms: _704  and  _706
REMARK  269  A    between atoms: _706  and  _707
REMARK  270  A    between atoms: _706  and  _709
REMARK  271  A    between atoms: _709  and  _710
REMARK  272  A    between atoms: _715  and  _716
REMARK  273  A    between atoms: _718  and  _720
REMARK  274  A    between atoms: _720  and  _721
REMARK  275  A    between atoms: _720  and  _723
REMARK  276  A    between atoms: _723  and  _724
REMARK  277  A    between atoms: _724  and  _725
REMARK  278  A    between atoms: _725  and  _726
REMARK  279  A    between atoms: _735  and  _737
REMARK  280  A    between atoms: _737  and  _738
REMARK  281  A    between atoms: _737  and  _740
REMARK  282  A    between atoms: _740  and  _741
REMARK  283  A    between atoms: _746  and  _747
REMARK  284  A    between atoms: _749  and  _751
REMARK  285  A    between atoms: _751  and  _752
REMARK  286  A    between atoms: _751  and  _754
REMARK  287  A    between atoms: _754  and  _755
REMARK  288  A    between atoms: _761  and  _763
REMARK  289  A    between atoms: _763  and  _764
REMARK  290  A    between atoms: _763  and  _766
REMARK  291  A    between atoms: _766  and  _767
REMARK  292  A    between atoms: _769  and  _771
REMARK  293  A    between atoms: _771  and  _772
REMARK  294  A    between atoms: _771  and  _774
REMARK  295  A    between atoms: _774  and  _775
REMARK  296  A    between atoms: _781  and  _783
REMARK  297  A    between atoms: _783  and  _784
REMARK  298  A    between atoms: _783  and  _786
REMARK  299  A    between atoms: _786  and  _787
REMARK  300  A    between atoms: _787  and  _788
REMARK                            x       y       z     vdW  Elec       q    Type
REMARK                         _______ _______ _______ _____ _____    ______ ____
ROOT
ATOM      1  O   HOH     1       7.597   1.268 -16.358  0.00  0.00    +0.000 OA
ENDROOT
TORSDOF 0
REMARK  Name = ../refined-set-2016/4ca5/4ca5_pocket.pdb
REMARK  300 active torsions:
REMARK  status: ('A' for Active; 'I' for Inactive)
REMARK    1  A    between atoms: _1  and  _3
REMARK    2  A    between atoms: _3  and  _4
REMARK    3  A    between atoms: _3  and  _6
REMARK    4  A    between atoms: _6  and  _7
REMARK    5  A    between atoms: _12  and  _14
REMARK    6  A    between atoms: _14  and  _15
REMARK    7  A    between atoms: _14  and  _17
REMARK    8  A    between atoms: _17  and  _18
REMARK    9  A    between atoms: _23  and  _25
REMARK   10  A    between atoms: _25  and  _26
REMARK   11  A    between atoms: _25  and  _28
REMARK   12  A    between atoms: _28  and  _29
REMARK   13  A    between atoms: _29  and  _30
REMARK   14  A    between atoms: _33  and  _35
REMARK   15  A    between atoms: _35  and  _36
REMARK   16  A    between atoms: _35  and  _38
REMARK   17  A    between atoms: _38  and  _39
REMARK   18  A    between atoms: _44  and  _45
REMARK   19  A    between atoms: _47  and  _49
REMARK   20  A    between atoms: _49  and  _50
REMARK   21  A    between atoms: _49  and  _52
REMARK   22  A    between atoms: _52  and  _53
REMARK   23  A    between atoms: _53  and  _54
REMARK   24  A    between atoms: _57  and  _59
REMARK   25  A    between atoms: _59  and  _60
REMARK   26  A    between atoms: _59  and  _62
REMARK   27  A    between atoms: _62  and  _63
REMARK   28  A    between atoms: _66  and  _68
REMARK   29  A    between atoms: _68  and  _69
REMARK   30  A    between atoms: _71  and  _73
REMARK   31  A    between atoms: _73  and  _74
REMARK   32  A    between atoms: _73  and  _76
REMARK   33  A    between atoms: _76  and  _77
REMARK   34  A    between atoms: _82  and  _84
REMARK   35  A    between atoms: _84  and  _85
REMARK   36  A    between atoms: _84  and  _87
REMARK   37  A    between atoms: _87  and  _88
REMARK   38  A    between atoms: _88  and  _89
REMARK   39  A    between atoms: _91  and  _93
REMARK   40  A    between atoms: _93  and  _94
REMARK   41  A    between atoms: _93  and  _96
REMARK   42  A    between atoms: _96  and  _97
REMARK   43  A    between atoms: _107  and  _109
REMARK   44  A    between atoms: _109  and  _110
REMARK   45  A    between atoms: _109  and  _112
REMARK   46  A    between atoms: _112  and  _113
REMARK   47  A    between atoms: _113  and  _114
REMARK   48  A    between atoms: _119  and  _121
REMARK   49  A    between atoms: _121  and  _122
REMARK   50  A    between atoms: _121  and  _124
REMARK   51  A    between atoms: _124  and  _125
REMARK   52  A    between atoms: _128  and  _130
REMARK   53  A    between atoms: _130  and  _131
REMARK   54  A    between atoms: _130  and  _133
REMARK   55  A    between atoms: _133  and  _134
REMARK   56  A    between atoms: _144  and  _146
REMARK   57  A    between atoms: _146  and  _147
REMARK   58  A    between atoms: _146  and  _149
REMARK   59  A    between atoms: _149  and  _150
REMARK   60  A    between atoms: _152  and  _154
REMARK   61  A    between atoms: _154  and  _155
REMARK   62  A    between atoms: _154  and  _157
REMARK   63  A    between atoms: _157  and  _158
REMARK   64  A    between atoms: _163  and  _165
REMARK   65  A    between atoms: _165  and  _166
REMARK   66  A    between atoms: _165  and  _168
REMARK   67  A    between atoms: _171  and  _173
REMARK   68  A    between atoms: _173  and  _174
REMARK   69  A    between atoms: _173  and  _176
REMARK   70  A    between atoms: _178  and  _180
REMARK   71  A    between atoms: _180  and  _181
REMARK   72  A    between atoms: _180  and  _183
REMARK   73  A    between atoms: _183  and  _184
REMARK   74  A    between atoms: _189  and  _191
REMARK   75  A    between atoms: _191  and  _192
REMARK   76  A    between atoms: _195  and  _197
REMARK   77  A    between atoms: _197  and  _198
REMARK   78  A    between atoms: _197  and  _200
REMARK   79  A    between atoms: _200  and  _201
REMARK   80  A    between atoms: _203  and  _205
REMARK   81  A    between atoms: _205  and  _206
REMARK   82  A    between atoms: _209  and  _211
REMARK   83  A    between atoms: _211  and  _212
REMARK   84  A    between atoms: _211  and  _214
REMARK   85  A    between atoms: _214  and  _215
REMARK   86  A    between atoms: _225  and  _227
REMARK   87  A    between atoms: _227  and  _228
REMARK   88  A    between atoms: _227  and  _230
REMARK   89  A    between atoms: _230  and  _231
REMARK   90  A    between atoms: _234  and  _236
REMARK   91  A    between atoms: _236  and  _237
REMARK   92  A    between atoms: _236  and  _239
REMARK   93  A    between atoms: _239  and  _240
REMARK   94  A    between atoms: _245  and  _246
REMARK   95  A    between atoms: _248  and  _250
REMARK   96  A    between atoms: _250  and  _251
REMARK   97  A    between atoms: _250  and  _253
REMARK   98  A    between atoms: _253  and  _254
REMARK   99  A    between atoms: _254  and  _255
REMARK  100  A    between atoms: _255  and  _256
REMARK  101  A    between atoms: _265  and  _267
REMARK  102  A    between atoms: _267  and  _268
REMARK  103  A    between atoms: _267  and  _270
REMARK  104  A    between atoms: _270  and  _271
REMARK  105  A    between atoms: _274  and  _276
REMARK  106  A    between atoms: _276  and  _277
REMARK  107  A    between atoms: _276  and  _279
REMARK  108  A    between atoms: _279  and  _280
REMARK  109  A    between atoms: _280  and  _281
REMARK  110  A    between atoms: _281  and  _282
REMARK  111  A    between atoms: _282  and  _283
REMARK  112  A    between atoms: _287  and  _289
REMARK  113  A    between atoms: _289  and  _290
REMARK  114  A    between atoms: _289  and  _292
REMARK  115  A    between atoms: _292  and  _293
REMARK  116  A    between atoms: _293  and  _294
REMARK  117  A    between atoms: _299  and  _301
REMARK  118  A    between atoms: _301  and  _302
REMARK  119  A    between atoms: _301  and  _304
REMARK  120  A    between atoms: _304  and  _305
REMARK  121  A    between atoms: _310  and  _312
REMARK  122  A    between atoms: _312  and  _313
REMARK  123  A    between atoms: _312  and  _315
REMARK  124  A    between atoms: _315  and  _316
REMARK  125  A    between atoms: _319  and  _321
REMARK  126  A    between atoms: _321  and  _322
REMARK  127  A    between atoms: _321  and  _324
REMARK  128  A    between atoms: _324  and  _325
REMARK  129  A    between atoms: _325  and  _326
REMARK  130  A    between atoms: _329  and  _331
REMARK  131  A    between atoms: _331  and  _332
REMARK  132  A    between atoms: _331  and  _334
REMARK  133  A    between atoms: _334  and  _335
REMARK  134  A    between atoms: _338  and  _340
REMARK  135  A    between atoms: _340  and  _341
REMARK  136  A    between atoms: _340  and  _343
REMARK  137  A    between atoms: _346  and  _348
REMARK  138  A    between atoms: _348  and  _349
REMARK  139  A    between atoms: _348  and  _351
REMARK  140  A    between atoms: _354  and  _356
REMARK  141  A    between atoms: _356  and  _357
REMARK  142  A    between atoms: _360  and  _362
REMARK  143  A    between atoms: _362  and  _363
REMARK  144  A    between atoms: _362  and  _365
REMARK  145  A    between atoms: _365  and  _366
REMARK  146  A    between atoms: _371  and  _373
REMARK  147  A    between atoms: _384  and  _387
REMARK  148  A    between atoms: _387  and  _388
REMARK  149  A    between atoms: _388  and  _389
REMARK  150  A    between atoms: _394  and  _397
REMARK  151  A    between atoms: _397  and  _398
REMARK  152  A    between atoms: _398  and  _399
REMARK  153  A    between atoms: _408  and  _409
REMARK  154  A    between atoms: _417  and  _419
REMARK  155  A    between atoms: _419  and  _420
REMARK  156  A    between atoms: _419  and  _422
REMARK  157  A    between atoms: _422  and  _423
REMARK  158  A    between atoms: _426  and  _428
REMARK  159  A    between atoms: _428  and  _429
REMARK  160  A    between atoms: _428  and  _431
REMARK  161  A    between atoms: _431  and  _432
REMARK  162  A    between atoms: _437  and  _438
REMARK  163  A    between atoms: _440  and  _442
REMARK  164  A    between atoms: _442  and  _443
REMARK  165  A    between atoms: _442  and  _445
REMARK  166  A    between atoms: _445  and  _446
REMARK  167  A    between atoms: _452  and  _454
REMARK  168  A    between atoms: _454  and  _455
REMARK  169  A    between atoms: _454  and  _457
REMARK  170  A    between atoms: _457  and  _458
REMARK  171  A    between atoms: _463  and  _464
REMARK  172  A    between atoms: _466  and  _468
REMARK  173  A    between atoms: _468  and  _469
REMARK  174  A    between atoms: _468  and  _471
REMARK  175  A    between atoms: _471  and  _472
REMARK  176  A    between atoms: _472  and  _473
REMARK  177  A    between atoms: _473  and  _474
REMARK  178  A    between atoms: _483  and  _485
REMARK  179  A    between atoms: _485  and  _486
REMARK  180  A    between atoms: _485  and  _488
REMARK  181  A    between atoms: _488  and  _489
REMARK  182  A    between atoms: _489  and  _490
REMARK  183  A    between atoms: _493  and  _495
REMARK  184  A    between atoms: _495  and  _496
REMARK  185  A    between atoms: _498  and  _500
REMARK  186  A    between atoms: _500  and  _501
REMARK  187  A    between atoms: _500  and  _503
REMARK  188  A    between atoms: _503  and  _504
REMARK  189  A    between atoms: _510  and  _511
REMARK  190  A    between atoms: _516  and  _518
REMARK  191  A    between atoms: _518  and  _519
REMARK  192  A    between atoms: _521  and  _523
REMARK  193  A    between atoms: _523  and  _524
REMARK  194  A    between atoms: _523  and  _526
REMARK  195  A    between atoms: _526  and  _527
REMARK  196  A    between atoms: _533  and  _535
REMARK  197  A    between atoms: _535  and  _536
REMARK  198  A    between atoms: _535  and  _538
REMARK  199  A    between atoms: _538  and  _539
REMARK  200  A    between atoms: _544  and  _546
REMARK  201  A    between atoms: _546  and  _547
REMARK  202  A    between atoms: _546  and  _549
REMARK  203  A    between atoms: _549  and  _550
REMARK  204  A    between atoms: _550  and  _551
REMARK  205  A    between atoms: _551  and  _552
REMARK  206  A    between atoms: _552  and  ZN_793
REMARK  207  A    between atoms: _554  and  _556
REMARK  208  A    between atoms: _556  and  _557
REMARK  209  A    between atoms: _560  and  _562
REMARK  210  A    between atoms: _562  and  _563
REMARK  211  A    between atoms: _562  and  _565
REMARK  212  A    between atoms: _565  and  _566
REMARK  213  A    between atoms: _569  and  _571
REMARK  214  A    between atoms: _571  and  _572
REMARK  215  A    between atoms: _575  and  _577
REMARK  216  A    between atoms: _577  and  _578
REMARK  217  A    between atoms: _577  and  _580
REMARK  218  A    between atoms: _580  and  _581
REMARK  219  A    between atoms: _584  and  _586
REMARK  220  A    between atoms: _586  and  _587
REMARK  221  A    between atoms: _586  and  _589
REMARK  222  A    between atoms: _589  and  _590
REMARK  223  A    between atoms: _590  and  _591
REMARK  224  A    between atoms: _591  and  _592
REMARK  225  A    between atoms: _592  and  _593
REMARK  226  A    between atoms: _597  and  _599
REMARK  227  A    between atoms: _599  and  _600
REMARK  228  A    between atoms: _599  and  _602
REMARK  229  A    between atoms: _602  and  _603
REMARK  230  A    between atoms: _609  and  _611
REMARK  231  A    between atoms: _611  and  _612
REMARK  232  A    between atoms: _611  and  _614
REMARK  233  A    between atoms: _614  and  _615
REMARK  234  A    between atoms: _621  and  _623
REMARK  235  A    between atoms: _623  and  _624
REMARK  236  A    between atoms: _623  and  _626
REMARK  237  A    between atoms: _626  and  _627
REMARK  238  A    between atoms: _629  and  _631
REMARK  239  A    between atoms: _631  and  _632
REMARK  240  A    between atoms: _631  and  _634
REMARK  241  A    between atoms: _637  and  _639
REMARK  242  A    between atoms: _639  and  _640
REMARK  243  A    between atoms: _639  and  _642
REMARK  244  A    between atoms: _642  and  _643
REMARK  245  A    between atoms: _643  and  _644
REMARK  246  A    between atoms: _644  and  _645
REMARK  247  A    between atoms: _645  and  _646
REMARK  248  A    between atoms: _650  and  _652
REMARK  249  A    between atoms: _652  and  _653
REMARK  250  A    between atoms: _652  and  _655
REMARK  251  A    between atoms: _655  and  _656
REMARK  252  A    between atoms: _662  and  _664
REMARK  253  A    between atoms: _664  and  _665
REMARK  254  A    between atoms: _664  and  _667
REMARK  255  A    between atoms: _667  and  _668
REMARK  256  A    between atoms: _673  and  _675
REMARK  257  A    between atoms: _675  and  _676
REMARK  258  A    between atoms: _675  and  _678
REMARK  259  A    between atoms: _678  and  _679
REMARK  260  A    between atoms: _681  and  _683
REMARK  261  A    between atoms: _683  and  _684
REMARK  262  A    between atoms: _683  and  _686
REMARK  263  A    between atoms: _686  and  _687
REMARK  264  A    between atoms: _689  and  _691
REMARK  265  A    between atoms: _691  and  _692
REMARK  266  A    between atoms: _691  and  _694
REMARK  267  A    between atoms: _698  and  _699
REMARK  268  A    between atoms: _704  and  _706
REMARK  269  A    between atoms: _706  and  _707
REMARK  270  A    between atoms: _706  and  _709
REMARK  271  A    between atoms: _709  and  _710
REMARK  272  A    between atoms: _715  and  _716
REMARK  273  A    between atoms: _718  and  _720
REMARK  274  A    between atoms: _720  and  _721
REMARK  275  A    between atoms: _720  and  _723
REMARK  276  A    between atoms: _723  and  _724
REMARK  277  A    between atoms: _724  and  _725
REMARK  278  A    between atoms: _725  and  _726
REMARK  279  A    between atoms: _735  and  _737
REMARK  280  A    between atoms: _737  and  _738
REMARK  281  A    between atoms: _737  and  _740
REMARK  282  A    between atoms: _740  and  _741
REMARK  283  A    between atoms: _746  and  _747
REMARK  284  A    between atoms: _749  and  _751
REMARK  285  A    between atoms: _751  and  _752
REMARK  286  A    between atoms: _751  and  _754
REMARK  287  A    between atoms: _754  and  _755
REMARK  288  A    between atoms: _761  and  _763
REMARK  289  A    between atoms: _763  and  _764
REMARK  290  A    between atoms: _763  and  _766
REMARK  291  A    between atoms: _766  and  _767
REMARK  292  A    between atoms: _769  and  _771
REMARK  293  A    between atoms: _771  and  _772
REMARK  294  A    between atoms: _771  and  _774
REMARK  295  A    between atoms: _774  and  _775
REMARK  296  A    between atoms: _781  and  _783
REMARK  297  A    between atoms: _783  and  _784
REMARK  298  A    between atoms: _783  and  _786
REMARK  299  A    between atoms: _786  and  _787
REMARK  300  A    between atoms: _787  and  _788
REMARK                            x       y       z     vdW  Elec       q    Type
REMARK                         _______ _______ _______ _____ _____    ______ ____
ROOT
ATOM      1  O   HOH     1      11.777   2.470 -17.605  0.00  0.00    +0.000 OA
ENDROOT
TORSDOF 0
