REMARK  Name = ../refined-set-2016/4eky/4eky_pocket.pdb
REMARK  279 active torsions:
REMARK  status: ('A' for Active; 'I' for Inactive)
REMARK    1  A    between atoms: _1  and  _3
REMARK    2  A    between atoms: _3  and  _4
REMARK    3  A    between atoms: _3  and  _6
REMARK    4  A    between atoms: _6  and  _7
REMARK    5  A    between atoms: _12  and  _13
REMARK    6  A    between atoms: _15  and  _17
REMARK    7  A    between atoms: _17  and  _18
REMARK    8  A    between atoms: _17  and  _20
REMARK    9  A    between atoms: _20  and  _21
REMARK   10  A    between atoms: _21  and  _22
REMARK   11  A    between atoms: _25  and  _27
REMARK   12  A    between atoms: _27  and  _28
REMARK   13  A    between atoms: _27  and  _30
REMARK   14  A    between atoms: _30  and  _31
REMARK   15  A    between atoms: _36  and  _37
REMARK   16  A    between atoms: _39  and  _41
REMARK   17  A    between atoms: _41  and  _42
REMARK   18  A    between atoms: _41  and  _44
REMARK   19  A    between atoms: _44  and  _45
REMARK   20  A    between atoms: _50  and  _52
REMARK   21  A    between atoms: _52  and  _53
REMARK   22  A    between atoms: _55  and  _57
REMARK   23  A    between atoms: _57  and  _58
REMARK   24  A    between atoms: _60  and  _62
REMARK   25  A    between atoms: _62  and  _63
REMARK   26  A    between atoms: _62  and  _65
REMARK   27  A    between atoms: _65  and  _66
REMARK   28  A    between atoms: _69  and  _71
REMARK   29  A    between atoms: _71  and  _72
REMARK   30  A    between atoms: _74  and  _76
REMARK   31  A    between atoms: _76  and  _77
REMARK   32  A    between atoms: _76  and  _79
REMARK   33  A    between atoms: _79  and  _80
REMARK   34  A    between atoms: _80  and  _81
REMARK   35  A    between atoms: _81  and  _82
REMARK   36  A    between atoms: _91  and  _93
REMARK   37  A    between atoms: _93  and  _94
REMARK   38  A    between atoms: _93  and  _96
REMARK   39  A    between atoms: _96  and  _97
REMARK   40  A    between atoms: _100  and  _102
REMARK   41  A    between atoms: _102  and  _103
REMARK   42  A    between atoms: _106  and  _108
REMARK   43  A    between atoms: _108  and  _109
REMARK   44  A    between atoms: _108  and  _111
REMARK   45  A    between atoms: _111  and  _112
REMARK   46  A    between atoms: _118  and  _120
REMARK   47  A    between atoms: _120  and  _121
REMARK   48  A    between atoms: _120  and  _123
REMARK   49  A    between atoms: _123  and  _124
REMARK   50  A    between atoms: _129  and  _131
REMARK   51  A    between atoms: _131  and  _132
REMARK   52  A    between atoms: _131  and  _134
REMARK   53  A    between atoms: _134  and  _135
REMARK   54  A    between atoms: _138  and  _140
REMARK   55  A    between atoms: _140  and  _141
REMARK   56  A    between atoms: _140  and  _143
REMARK   57  A    between atoms: _143  and  _144
REMARK   58  A    between atoms: _149  and  _151
REMARK   59  A    between atoms: _151  and  _152
REMARK   60  A    between atoms: _151  and  _154
REMARK   61  A    between atoms: _154  and  _155
REMARK   62  A    between atoms: _161  and  _163
REMARK   63  A    between atoms: _163  and  _164
REMARK   64  A    between atoms: _163  and  _166
REMARK   65  A    between atoms: _166  and  _167
REMARK   66  A    between atoms: _173  and  _175
REMARK   67  A    between atoms: _175  and  _176
REMARK   68  A    between atoms: _175  and  _178
REMARK   69  A    between atoms: _178  and  _179
REMARK   70  A    between atoms: _179  and  _180
REMARK   71  A    between atoms: _180  and  _181
REMARK   72  A    between atoms: _190  and  _192
REMARK   73  A    between atoms: _192  and  _193
REMARK   74  A    between atoms: _192  and  _195
REMARK   75  A    between atoms: _195  and  _196
REMARK   76  A    between atoms: _196  and  _197
REMARK   77  A    between atoms: _200  and  _202
REMARK   78  A    between atoms: _202  and  _203
REMARK   79  A    between atoms: _202  and  _205
REMARK   80  A    between atoms: _205  and  _206
REMARK   81  A    between atoms: _211  and  _213
REMARK   82  A    between atoms: _213  and  _214
REMARK   83  A    between atoms: _213  and  _216
REMARK   84  A    between atoms: _216  and  _217
REMARK   85  A    between atoms: _220  and  _222
REMARK   86  A    between atoms: _222  and  _223
REMARK   87  A    between atoms: _222  and  _225
REMARK   88  A    between atoms: _225  and  _226
REMARK   89  A    between atoms: _229  and  _231
REMARK   90  A    between atoms: _231  and  _232
REMARK   91  A    between atoms: _231  and  _234
REMARK   92  A    between atoms: _234  and  _235
REMARK   93  A    between atoms: _241  and  _242
REMARK   94  A    between atoms: _247  and  _249
REMARK   95  A    between atoms: _249  and  _250
REMARK   96  A    between atoms: _249  and  _252
REMARK   97  A    between atoms: _252  and  _253
REMARK   98  A    between atoms: _258  and  _259
REMARK   99  A    between atoms: _261  and  _263
REMARK  100  A    between atoms: _263  and  _264
REMARK  101  A    between atoms: _263  and  _266
REMARK  102  A    between atoms: _266  and  _267
REMARK  103  A    between atoms: _270  and  _272
REMARK  104  A    between atoms: _272  and  _273
REMARK  105  A    between atoms: _272  and  _275
REMARK  106  A    between atoms: _275  and  _276
REMARK  107  A    between atoms: _281  and  _283
REMARK  108  A    between atoms: _283  and  _284
REMARK  109  A    between atoms: _283  and  _286
REMARK  110  A    between atoms: _286  and  _287
REMARK  111  A    between atoms: _292  and  _294
REMARK  112  A    between atoms: _294  and  _295
REMARK  113  A    between atoms: _294  and  _297
REMARK  114  A    between atoms: _297  and  _298
REMARK  115  A    between atoms: _301  and  _303
REMARK  116  A    between atoms: _303  and  _304
REMARK  117  A    between atoms: _303  and  _306
REMARK  118  A    between atoms: _309  and  _311
REMARK  119  A    between atoms: _311  and  _312
REMARK  120  A    between atoms: _311  and  _314
REMARK  121  A    between atoms: _314  and  _315
REMARK  122  A    between atoms: _319  and  _320
REMARK  123  A    between atoms: _325  and  _327
REMARK  124  A    between atoms: _327  and  _328
REMARK  125  A    between atoms: _327  and  _330
REMARK  126  A    between atoms: _330  and  _331
REMARK  127  A    between atoms: _331  and  _332
REMARK  128  A    between atoms: _335  and  _337
REMARK  129  A    between atoms: _337  and  _338
REMARK  130  A    between atoms: _341  and  _343
REMARK  131  A    between atoms: _343  and  _344
REMARK  132  A    between atoms: _343  and  _346
REMARK  133  A    between atoms: _346  and  _347
REMARK  134  A    between atoms: _350  and  _352
REMARK  135  A    between atoms: _352  and  _353
REMARK  136  A    between atoms: _352  and  _355
REMARK  137  A    between atoms: _355  and  _356
REMARK  138  A    between atoms: _356  and  _357
REMARK  139  A    between atoms: _360  and  _362
REMARK  140  A    between atoms: _362  and  _363
REMARK  141  A    between atoms: _362  and  _365
REMARK  142  A    between atoms: _365  and  _366
REMARK  143  A    between atoms: _366  and  _367
REMARK  144  A    between atoms: _369  and  _371
REMARK  145  A    between atoms: _371  and  _372
REMARK  146  A    between atoms: _375  and  _377
REMARK  147  A    between atoms: _377  and  _378
REMARK  148  A    between atoms: _377  and  _380
REMARK  149  A    between atoms: _380  and  _381
REMARK  150  A    between atoms: _386  and  _388
REMARK  151  A    between atoms: _388  and  _389
REMARK  152  A    between atoms: _391  and  _393
REMARK  153  A    between atoms: _393  and  _394
REMARK  154  A    between atoms: _393  and  _396
REMARK  155  A    between atoms: _399  and  _401
REMARK  156  A    between atoms: _401  and  _402
REMARK  157  A    between atoms: _405  and  _407
REMARK  158  A    between atoms: _407  and  _408
REMARK  159  A    between atoms: _407  and  _410
REMARK  160  A    between atoms: _410  and  _411
REMARK  161  A    between atoms: _416  and  _418
REMARK  162  A    between atoms: _418  and  _419
REMARK  163  A    between atoms: _418  and  _421
REMARK  164  A    between atoms: _421  and  _422
REMARK  165  A    between atoms: _428  and  _430
REMARK  166  A    between atoms: _430  and  _431
REMARK  167  A    between atoms: _430  and  _433
REMARK  168  A    between atoms: _433  and  _434
REMARK  169  A    between atoms: _434  and  _435
REMARK  170  A    between atoms: _435  and  _436
REMARK  171  A    between atoms: _436  and  _437
REMARK  172  A    between atoms: _441  and  _443
REMARK  173  A    between atoms: _443  and  _444
REMARK  174  A    between atoms: _443  and  _446
REMARK  175  A    between atoms: _446  and  _447
REMARK  176  A    between atoms: _450  and  _452
REMARK  177  A    between atoms: _452  and  _453
REMARK  178  A    between atoms: _452  and  _455
REMARK  179  A    between atoms: _455  and  _456
REMARK  180  A    between atoms: _461  and  _463
REMARK  181  A    between atoms: _463  and  _464
REMARK  182  A    between atoms: _466  and  _468
REMARK  183  A    between atoms: _468  and  _469
REMARK  184  A    between atoms: _468  and  _471
REMARK  185  A    between atoms: _471  and  _472
REMARK  186  A    between atoms: _475  and  _477
REMARK  187  A    between atoms: _477  and  _478
REMARK  188  A    between atoms: _477  and  _480
REMARK  189  A    between atoms: _480  and  _481
REMARK  190  A    between atoms: _481  and  _482
REMARK  191  A    between atoms: _482  and  _483
REMARK  192  A    between atoms: _483  and  _484
REMARK  193  A    between atoms: _488  and  _490
REMARK  194  A    between atoms: _490  and  _491
REMARK  195  A    between atoms: _490  and  _493
REMARK  196  A    between atoms: _493  and  _494
REMARK  197  A    between atoms: _494  and  _495
REMARK  198  A    between atoms: _495  and  _496
REMARK  199  A    between atoms: _505  and  _507
REMARK  200  A    between atoms: _507  and  _508
REMARK  201  A    between atoms: _507  and  _510
REMARK  202  A    between atoms: _510  and  _511
REMARK  203  A    between atoms: _516  and  _518
REMARK  204  A    between atoms: _518  and  _519
REMARK  205  A    between atoms: _518  and  _521
REMARK  206  A    between atoms: _521  and  _522
REMARK  207  A    between atoms: _527  and  _528
REMARK  208  A    between atoms: _530  and  _532
REMARK  209  A    between atoms: _532  and  _533
REMARK  210  A    between atoms: _532  and  _535
REMARK  211  A    between atoms: _535  and  _536
REMARK  212  A    between atoms: _536  and  _537
REMARK  213  A    between atoms: _537  and  _538
REMARK  214  A    between atoms: _538  and  _539
REMARK  215  A    between atoms: _543  and  _545
REMARK  216  A    between atoms: _545  and  _546
REMARK  217  A    between atoms: _545  and  _548
REMARK  218  A    between atoms: _548  and  _549
REMARK  219  A    between atoms: _551  and  _553
REMARK  220  A    between atoms: _553  and  _554
REMARK  221  A    between atoms: _553  and  _556
REMARK  222  A    between atoms: _556  and  _557
REMARK  223  A    between atoms: _560  and  _562
REMARK  224  A    between atoms: _562  and  _563
REMARK  225  A    between atoms: _562  and  _565
REMARK  226  A    between atoms: _565  and  _566
REMARK  227  A    between atoms: _566  and  _567
REMARK  228  A    between atoms: _570  and  _572
REMARK  229  A    between atoms: _572  and  _573
REMARK  230  A    between atoms: _576  and  _578
REMARK  231  A    between atoms: _578  and  _579
REMARK  232  A    between atoms: _578  and  _581
REMARK  233  A    between atoms: _581  and  _582
REMARK  234  A    between atoms: _584  and  _586
REMARK  235  A    between atoms: _586  and  _587
REMARK  236  A    between atoms: _589  and  _591
REMARK  237  A    between atoms: _591  and  _592
REMARK  238  A    between atoms: _591  and  _594
REMARK  239  A    between atoms: _594  and  _595
REMARK  240  A    between atoms: _598  and  _600
REMARK  241  A    between atoms: _600  and  _601
REMARK  242  A    between atoms: _603  and  _605
REMARK  243  A    between atoms: _605  and  _606
REMARK  244  A    between atoms: _605  and  _608
REMARK  245  A    between atoms: _608  and  _609
REMARK  246  A    between atoms: _614  and  _616
REMARK  247  A    between atoms: _616  and  _617
REMARK  248  A    between atoms: _616  and  _619
REMARK  249  A    between atoms: _619  and  _620
REMARK  250  A    between atoms: _620  and  _621
REMARK  251  A    between atoms: _628  and  _629
REMARK  252  A    between atoms: _629  and  _645
REMARK  253  A    between atoms: _630  and  _632
REMARK  254  A    between atoms: _632  and  _633
REMARK  255  A    between atoms: _633  and  _634
REMARK  256  A    between atoms: _638  and  _640
REMARK  257  A    between atoms: _640  and  _641
REMARK  258  A    between atoms: _640  and  _648
REMARK  259  A    between atoms: _641  and  _642
REMARK  260  A    between atoms: _642  and  _643
REMARK  261  A    between atoms: _643  and  _644
REMARK  262  A    between atoms: _644  and  _645
REMARK  263  A    between atoms: _650  and  _652
REMARK  264  A    between atoms: _652  and  _653
REMARK  265  A    between atoms: _652  and  _655
REMARK  266  A    between atoms: _655  and  _656
REMARK  267  A    between atoms: _659  and  _661
REMARK  268  A    between atoms: _661  and  _662
REMARK  269  A    between atoms: _664  and  _666
REMARK  270  A    between atoms: _666  and  _667
REMARK  271  A    between atoms: _670  and  _672
REMARK  272  A    between atoms: _672  and  _673
REMARK  273  A    between atoms: _672  and  _675
REMARK  274  A    between atoms: _675  and  _676
REMARK  275  A    between atoms: _679  and  _681
REMARK  276  A    between atoms: _681  and  _682
REMARK  277  A    between atoms: _681  and  _684
REMARK  278  A    between atoms: _684  and  _685
REMARK  279  A    between atoms: _690  and  _691
REMARK                            x       y       z     vdW  Elec       q    Type
REMARK                         _______ _______ _______ _____ _____    ______ ____
ROOT
ATOM      1  CG  TYR A   1      33.297  11.387  36.511  0.00  0.00    -0.020 A 
ATOM      2  CD2 TYR A   1      32.804  12.663  36.615  0.00  0.00    -0.001 A 
ATOM      3  CE2 TYR A   1      32.877  13.536  35.528  0.00  0.00    +0.036 A 
ATOM      4  CZ  TYR A   1      33.440  13.097  34.335  0.00  0.00    +0.134 A 
ATOM      5  CE1 TYR A   1      33.932  11.824  34.219  0.00  0.00    +0.036 A 
ATOM      6  CD1 TYR A   1      33.870  10.998  35.291  0.00  0.00    -0.001 A 
ENDROOT
BRANCH   4   7
ATOM      7  OH  TYR A   1      33.518  13.946  33.242  0.00  0.00    -0.506 OA
ATOM      8  HH  TYR A   1      33.944  13.470  32.486  0.00  0.00    +0.292 HD
ENDBRANCH   4   7
BRANCH   1   9
ATOM      9  CB  TYR A   1      33.308  10.465  37.678  0.00  0.00    +0.051 C 
BRANCH   9  10
ATOM     10  CA  TYR A   1      34.665  10.420  38.368  0.00  0.00    +0.137 C 
BRANCH  10  11
ATOM     11  N   TYR A   1      34.720   9.258  39.229  0.00  0.00    -0.239 NA
ATOM     12  H   TYR A   1      33.887   9.054  39.818  0.00  0.00    +0.142 HD
ENDBRANCH  10  11
BRANCH  10  13
ATOM     13  C   TYR A   1      34.925  11.673  39.249  0.00  0.00    +0.224 C 
ATOM     14  O   TYR A   1      34.085  12.097  40.034  0.00  0.00    -0.287 OA
ENDBRANCH  10  13
ENDBRANCH   9  10
ENDBRANCH   1   9
TORSDOF 5
REMARK  Name = ../refined-set-2016/4eky/4eky_pocket.pdb
REMARK  279 active torsions:
REMARK  status: ('A' for Active; 'I' for Inactive)
REMARK    1  A    between atoms: _1  and  _3
REMARK    2  A    between atoms: _3  and  _4
REMARK    3  A    between atoms: _3  and  _6
REMARK    4  A    between atoms: _6  and  _7
REMARK    5  A    between atoms: _12  and  _13
REMARK    6  A    between atoms: _15  and  _17
REMARK    7  A    between atoms: _17  and  _18
REMARK    8  A    between atoms: _17  and  _20
REMARK    9  A    between atoms: _20  and  _21
REMARK   10  A    between atoms: _21  and  _22
REMARK   11  A    between atoms: _25  and  _27
REMARK   12  A    between atoms: _27  and  _28
REMARK   13  A    between atoms: _27  and  _30
REMARK   14  A    between atoms: _30  and  _31
REMARK   15  A    between atoms: _36  and  _37
REMARK   16  A    between atoms: _39  and  _41
REMARK   17  A    between atoms: _41  and  _42
REMARK   18  A    between atoms: _41  and  _44
REMARK   19  A    between atoms: _44  and  _45
REMARK   20  A    between atoms: _50  and  _52
REMARK   21  A    between atoms: _52  and  _53
REMARK   22  A    between atoms: _55  and  _57
REMARK   23  A    between atoms: _57  and  _58
REMARK   24  A    between atoms: _60  and  _62
REMARK   25  A    between atoms: _62  and  _63
REMARK   26  A    between atoms: _62  and  _65
REMARK   27  A    between atoms: _65  and  _66
REMARK   28  A    between atoms: _69  and  _71
REMARK   29  A    between atoms: _71  and  _72
REMARK   30  A    between atoms: _74  and  _76
REMARK   31  A    between atoms: _76  and  _77
REMARK   32  A    between atoms: _76  and  _79
REMARK   33  A    between atoms: _79  and  _80
REMARK   34  A    between atoms: _80  and  _81
REMARK   35  A    between atoms: _81  and  _82
REMARK   36  A    between atoms: _91  and  _93
REMARK   37  A    between atoms: _93  and  _94
REMARK   38  A    between atoms: _93  and  _96
REMARK   39  A    between atoms: _96  and  _97
REMARK   40  A    between atoms: _100  and  _102
REMARK   41  A    between atoms: _102  and  _103
REMARK   42  A    between atoms: _106  and  _108
REMARK   43  A    between atoms: _108  and  _109
REMARK   44  A    between atoms: _108  and  _111
REMARK   45  A    between atoms: _111  and  _112
REMARK   46  A    between atoms: _118  and  _120
REMARK   47  A    between atoms: _120  and  _121
REMARK   48  A    between atoms: _120  and  _123
REMARK   49  A    between atoms: _123  and  _124
REMARK   50  A    between atoms: _129  and  _131
REMARK   51  A    between atoms: _131  and  _132
REMARK   52  A    between atoms: _131  and  _134
REMARK   53  A    between atoms: _134  and  _135
REMARK   54  A    between atoms: _138  and  _140
REMARK   55  A    between atoms: _140  and  _141
REMARK   56  A    between atoms: _140  and  _143
REMARK   57  A    between atoms: _143  and  _144
REMARK   58  A    between atoms: _149  and  _151
REMARK   59  A    between atoms: _151  and  _152
REMARK   60  A    between atoms: _151  and  _154
REMARK   61  A    between atoms: _154  and  _155
REMARK   62  A    between atoms: _161  and  _163
REMARK   63  A    between atoms: _163  and  _164
REMARK   64  A    between atoms: _163  and  _166
REMARK   65  A    between atoms: _166  and  _167
REMARK   66  A    between atoms: _173  and  _175
REMARK   67  A    between atoms: _175  and  _176
REMARK   68  A    between atoms: _175  and  _178
REMARK   69  A    between atoms: _178  and  _179
REMARK   70  A    between atoms: _179  and  _180
REMARK   71  A    between atoms: _180  and  _181
REMARK   72  A    between atoms: _190  and  _192
REMARK   73  A    between atoms: _192  and  _193
REMARK   74  A    between atoms: _192  and  _195
REMARK   75  A    between atoms: _195  and  _196
REMARK   76  A    between atoms: _196  and  _197
REMARK   77  A    between atoms: _200  and  _202
REMARK   78  A    between atoms: _202  and  _203
REMARK   79  A    between atoms: _202  and  _205
REMARK   80  A    between atoms: _205  and  _206
REMARK   81  A    between atoms: _211  and  _213
REMARK   82  A    between atoms: _213  and  _214
REMARK   83  A    between atoms: _213  and  _216
REMARK   84  A    between atoms: _216  and  _217
REMARK   85  A    between atoms: _220  and  _222
REMARK   86  A    between atoms: _222  and  _223
REMARK   87  A    between atoms: _222  and  _225
REMARK   88  A    between atoms: _225  and  _226
REMARK   89  A    between atoms: _229  and  _231
REMARK   90  A    between atoms: _231  and  _232
REMARK   91  A    between atoms: _231  and  _234
REMARK   92  A    between atoms: _234  and  _235
REMARK   93  A    between atoms: _241  and  _242
REMARK   94  A    between atoms: _247  and  _249
REMARK   95  A    between atoms: _249  and  _250
REMARK   96  A    between atoms: _249  and  _252
REMARK   97  A    between atoms: _252  and  _253
REMARK   98  A    between atoms: _258  and  _259
REMARK   99  A    between atoms: _261  and  _263
REMARK  100  A    between atoms: _263  and  _264
REMARK  101  A    between atoms: _263  and  _266
REMARK  102  A    between atoms: _266  and  _267
REMARK  103  A    between atoms: _270  and  _272
REMARK  104  A    between atoms: _272  and  _273
REMARK  105  A    between atoms: _272  and  _275
REMARK  106  A    between atoms: _275  and  _276
REMARK  107  A    between atoms: _281  and  _283
REMARK  108  A    between atoms: _283  and  _284
REMARK  109  A    between atoms: _283  and  _286
REMARK  110  A    between atoms: _286  and  _287
REMARK  111  A    between atoms: _292  and  _294
REMARK  112  A    between atoms: _294  and  _295
REMARK  113  A    between atoms: _294  and  _297
REMARK  114  A    between atoms: _297  and  _298
REMARK  115  A    between atoms: _301  and  _303
REMARK  116  A    between atoms: _303  and  _304
REMARK  117  A    between atoms: _303  and  _306
REMARK  118  A    between atoms: _309  and  _311
REMARK  119  A    between atoms: _311  and  _312
REMARK  120  A    between atoms: _311  and  _314
REMARK  121  A    between atoms: _314  and  _315
REMARK  122  A    between atoms: _319  and  _320
REMARK  123  A    between atoms: _325  and  _327
REMARK  124  A    between atoms: _327  and  _328
REMARK  125  A    between atoms: _327  and  _330
REMARK  126  A    between atoms: _330  and  _331
REMARK  127  A    between atoms: _331  and  _332
REMARK  128  A    between atoms: _335  and  _337
REMARK  129  A    between atoms: _337  and  _338
REMARK  130  A    between atoms: _341  and  _343
REMARK  131  A    between atoms: _343  and  _344
REMARK  132  A    between atoms: _343  and  _346
REMARK  133  A    between atoms: _346  and  _347
REMARK  134  A    between atoms: _350  and  _352
REMARK  135  A    between atoms: _352  and  _353
REMARK  136  A    between atoms: _352  and  _355
REMARK  137  A    between atoms: _355  and  _356
REMARK  138  A    between atoms: _356  and  _357
REMARK  139  A    between atoms: _360  and  _362
REMARK  140  A    between atoms: _362  and  _363
REMARK  141  A    between atoms: _362  and  _365
REMARK  142  A    between atoms: _365  and  _366
REMARK  143  A    between atoms: _366  and  _367
REMARK  144  A    between atoms: _369  and  _371
REMARK  145  A    between atoms: _371  and  _372
REMARK  146  A    between atoms: _375  and  _377
REMARK  147  A    between atoms: _377  and  _378
REMARK  148  A    between atoms: _377  and  _380
REMARK  149  A    between atoms: _380  and  _381
REMARK  150  A    between atoms: _386  and  _388
REMARK  151  A    between atoms: _388  and  _389
REMARK  152  A    between atoms: _391  and  _393
REMARK  153  A    between atoms: _393  and  _394
REMARK  154  A    between atoms: _393  and  _396
REMARK  155  A    between atoms: _399  and  _401
REMARK  156  A    between atoms: _401  and  _402
REMARK  157  A    between atoms: _405  and  _407
REMARK  158  A    between atoms: _407  and  _408
REMARK  159  A    between atoms: _407  and  _410
REMARK  160  A    between atoms: _410  and  _411
REMARK  161  A    between atoms: _416  and  _418
REMARK  162  A    between atoms: _418  and  _419
REMARK  163  A    between atoms: _418  and  _421
REMARK  164  A    between atoms: _421  and  _422
REMARK  165  A    between atoms: _428  and  _430
REMARK  166  A    between atoms: _430  and  _431
REMARK  167  A    between atoms: _430  and  _433
REMARK  168  A    between atoms: _433  and  _434
REMARK  169  A    between atoms: _434  and  _435
REMARK  170  A    between atoms: _435  and  _436
REMARK  171  A    between atoms: _436  and  _437
REMARK  172  A    between atoms: _441  and  _443
REMARK  173  A    between atoms: _443  and  _444
REMARK  174  A    between atoms: _443  and  _446
REMARK  175  A    between atoms: _446  and  _447
REMARK  176  A    between atoms: _450  and  _452
REMARK  177  A    between atoms: _452  and  _453
REMARK  178  A    between atoms: _452  and  _455
REMARK  179  A    between atoms: _455  and  _456
REMARK  180  A    between atoms: _461  and  _463
REMARK  181  A    between atoms: _463  and  _464
REMARK  182  A    between atoms: _466  and  _468
REMARK  183  A    between atoms: _468  and  _469
REMARK  184  A    between atoms: _468  and  _471
REMARK  185  A    between atoms: _471  and  _472
REMARK  186  A    between atoms: _475  and  _477
REMARK  187  A    between atoms: _477  and  _478
REMARK  188  A    between atoms: _477  and  _480
REMARK  189  A    between atoms: _480  and  _481
REMARK  190  A    between atoms: _481  and  _482
REMARK  191  A    between atoms: _482  and  _483
REMARK  192  A    between atoms: _483  and  _484
REMARK  193  A    between atoms: _488  and  _490
REMARK  194  A    between atoms: _490  and  _491
REMARK  195  A    between atoms: _490  and  _493
REMARK  196  A    between atoms: _493  and  _494
REMARK  197  A    between atoms: _494  and  _495
REMARK  198  A    between atoms: _495  and  _496
REMARK  199  A    between atoms: _505  and  _507
REMARK  200  A    between atoms: _507  and  _508
REMARK  201  A    between atoms: _507  and  _510
REMARK  202  A    between atoms: _510  and  _511
REMARK  203  A    between atoms: _516  and  _518
REMARK  204  A    between atoms: _518  and  _519
REMARK  205  A    between atoms: _518  and  _521
REMARK  206  A    between atoms: _521  and  _522
REMARK  207  A    between atoms: _527  and  _528
REMARK  208  A    between atoms: _530  and  _532
REMARK  209  A    between atoms: _532  and  _533
REMARK  210  A    between atoms: _532  and  _535
REMARK  211  A    between atoms: _535  and  _536
REMARK  212  A    between atoms: _536  and  _537
REMARK  213  A    between atoms: _537  and  _538
REMARK  214  A    between atoms: _538  and  _539
REMARK  215  A    between atoms: _543  and  _545
REMARK  216  A    between atoms: _545  and  _546
REMARK  217  A    between atoms: _545  and  _548
REMARK  218  A    between atoms: _548  and  _549
REMARK  219  A    between atoms: _551  and  _553
REMARK  220  A    between atoms: _553  and  _554
REMARK  221  A    between atoms: _553  and  _556
REMARK  222  A    between atoms: _556  and  _557
REMARK  223  A    between atoms: _560  and  _562
REMARK  224  A    between atoms: _562  and  _563
REMARK  225  A    between atoms: _562  and  _565
REMARK  226  A    between atoms: _565  and  _566
REMARK  227  A    between atoms: _566  and  _567
REMARK  228  A    between atoms: _570  and  _572
REMARK  229  A    between atoms: _572  and  _573
REMARK  230  A    between atoms: _576  and  _578
REMARK  231  A    between atoms: _578  and  _579
REMARK  232  A    between atoms: _578  and  _581
REMARK  233  A    between atoms: _581  and  _582
REMARK  234  A    between atoms: _584  and  _586
REMARK  235  A    between atoms: _586  and  _587
REMARK  236  A    between atoms: _589  and  _591
REMARK  237  A    between atoms: _591  and  _592
REMARK  238  A    between atoms: _591  and  _594
REMARK  239  A    between atoms: _594  and  _595
REMARK  240  A    between atoms: _598  and  _600
REMARK  241  A    between atoms: _600  and  _601
REMARK  242  A    between atoms: _603  and  _605
REMARK  243  A    between atoms: _605  and  _606
REMARK  244  A    between atoms: _605  and  _608
REMARK  245  A    between atoms: _608  and  _609
REMARK  246  A    between atoms: _614  and  _616
REMARK  247  A    between atoms: _616  and  _617
REMARK  248  A    between atoms: _616  and  _619
REMARK  249  A    between atoms: _619  and  _620
REMARK  250  A    between atoms: _620  and  _621
REMARK  251  A    between atoms: _628  and  _629
REMARK  252  A    between atoms: _629  and  _645
REMARK  253  A    between atoms: _630  and  _632
REMARK  254  A    between atoms: _632  and  _633
REMARK  255  A    between atoms: _633  and  _634
REMARK  256  A    between atoms: _638  and  _640
REMARK  257  A    between atoms: _640  and  _641
REMARK  258  A    between atoms: _640  and  _648
REMARK  259  A    between atoms: _641  and  _642
REMARK  260  A    between atoms: _642  and  _643
REMARK  261  A    between atoms: _643  and  _644
REMARK  262  A    between atoms: _644  and  _645
REMARK  263  A    between atoms: _650  and  _652
REMARK  264  A    between atoms: _652  and  _653
REMARK  265  A    between atoms: _652  and  _655
REMARK  266  A    between atoms: _655  and  _656
REMARK  267  A    between atoms: _659  and  _661
REMARK  268  A    between atoms: _661  and  _662
REMARK  269  A    between atoms: _664  and  _666
REMARK  270  A    between atoms: _666  and  _667
REMARK  271  A    between atoms: _670  and  _672
REMARK  272  A    between atoms: _672  and  _673
REMARK  273  A    between atoms: _672  and  _675
REMARK  274  A    between atoms: _675  and  _676
REMARK  275  A    between atoms: _679  and  _681
REMARK  276  A    between atoms: _681  and  _682
REMARK  277  A    between atoms: _681  and  _684
REMARK  278  A    between atoms: _684  and  _685
REMARK  279  A    between atoms: _690  and  _691
REMARK                            x       y       z     vdW  Elec       q    Type
REMARK                         _______ _______ _______ _____ _____    ______ ____
ROOT
ATOM      1  CA  GLU A   1      31.655  20.744  38.922  0.00  0.00    +0.134 C 
ENDROOT
BRANCH   1   2
ATOM      2  N   GLU A   1      32.985  20.272  39.303  0.00  0.00    -0.239 NA
ATOM      3  H   GLU A   1      33.403  19.481  38.773  0.00  0.00    +0.142 HD
ENDBRANCH   1   2
BRANCH   1   4
ATOM      4  C   GLU A   1      30.685  19.586  38.698  0.00  0.00    +0.224 C 
ATOM      5  O   GLU A   1      31.010  18.612  38.014  0.00  0.00    -0.287 OA
ENDBRANCH   1   4
BRANCH   1   6
ATOM      6  CB  GLU A   1      31.764  21.610  37.644  0.00  0.00    +0.037 C 
BRANCH   6   7
ATOM      7  CG  GLU A   1      32.387  22.967  37.841  0.00  0.00    +0.116 C 
BRANCH   7   8
ATOM      8  CD  GLU A   1      32.364  23.825  36.575  0.00  0.00    +0.365 C 
ATOM      9  OE2 GLU A   1      33.243  24.712  36.474  0.00  0.00    -0.246 OA
ATOM     10  OE1 GLU A   1      31.474  23.642  35.685  0.00  0.00    -0.246 OA
ENDBRANCH   7   8
ENDBRANCH   6   7
ENDBRANCH   1   6
TORSDOF 5
REMARK  Name = ../refined-set-2016/4eky/4eky_pocket.pdb
REMARK  279 active torsions:
REMARK  status: ('A' for Active; 'I' for Inactive)
REMARK    1  A    between atoms: _1  and  _3
REMARK    2  A    between atoms: _3  and  _4
REMARK    3  A    between atoms: _3  and  _6
REMARK    4  A    between atoms: _6  and  _7
REMARK    5  A    between atoms: _12  and  _13
REMARK    6  A    between atoms: _15  and  _17
REMARK    7  A    between atoms: _17  and  _18
REMARK    8  A    between atoms: _17  and  _20
REMARK    9  A    between atoms: _20  and  _21
REMARK   10  A    between atoms: _21  and  _22
REMARK   11  A    between atoms: _25  and  _27
REMARK   12  A    between atoms: _27  and  _28
REMARK   13  A    between atoms: _27  and  _30
REMARK   14  A    between atoms: _30  and  _31
REMARK   15  A    between atoms: _36  and  _37
REMARK   16  A    between atoms: _39  and  _41
REMARK   17  A    between atoms: _41  and  _42
REMARK   18  A    between atoms: _41  and  _44
REMARK   19  A    between atoms: _44  and  _45
REMARK   20  A    between atoms: _50  and  _52
REMARK   21  A    between atoms: _52  and  _53
REMARK   22  A    between atoms: _55  and  _57
REMARK   23  A    between atoms: _57  and  _58
REMARK   24  A    between atoms: _60  and  _62
REMARK   25  A    between atoms: _62  and  _63
REMARK   26  A    between atoms: _62  and  _65
REMARK   27  A    between atoms: _65  and  _66
REMARK   28  A    between atoms: _69  and  _71
REMARK   29  A    between atoms: _71  and  _72
REMARK   30  A    between atoms: _74  and  _76
REMARK   31  A    between atoms: _76  and  _77
REMARK   32  A    between atoms: _76  and  _79
REMARK   33  A    between atoms: _79  and  _80
REMARK   34  A    between atoms: _80  and  _81
REMARK   35  A    between atoms: _81  and  _82
REMARK   36  A    between atoms: _91  and  _93
REMARK   37  A    between atoms: _93  and  _94
REMARK   38  A    between atoms: _93  and  _96
REMARK   39  A    between atoms: _96  and  _97
REMARK   40  A    between atoms: _100  and  _102
REMARK   41  A    between atoms: _102  and  _103
REMARK   42  A    between atoms: _106  and  _108
REMARK   43  A    between atoms: _108  and  _109
REMARK   44  A    between atoms: _108  and  _111
REMARK   45  A    between atoms: _111  and  _112
REMARK   46  A    between atoms: _118  and  _120
REMARK   47  A    between atoms: _120  and  _121
REMARK   48  A    between atoms: _120  and  _123
REMARK   49  A    between atoms: _123  and  _124
REMARK   50  A    between atoms: _129  and  _131
REMARK   51  A    between atoms: _131  and  _132
REMARK   52  A    between atoms: _131  and  _134
REMARK   53  A    between atoms: _134  and  _135
REMARK   54  A    between atoms: _138  and  _140
REMARK   55  A    between atoms: _140  and  _141
REMARK   56  A    between atoms: _140  and  _143
REMARK   57  A    between atoms: _143  and  _144
REMARK   58  A    between atoms: _149  and  _151
REMARK   59  A    between atoms: _151  and  _152
REMARK   60  A    between atoms: _151  and  _154
REMARK   61  A    between atoms: _154  and  _155
REMARK   62  A    between atoms: _161  and  _163
REMARK   63  A    between atoms: _163  and  _164
REMARK   64  A    between atoms: _163  and  _166
REMARK   65  A    between atoms: _166  and  _167
REMARK   66  A    between atoms: _173  and  _175
REMARK   67  A    between atoms: _175  and  _176
REMARK   68  A    between atoms: _175  and  _178
REMARK   69  A    between atoms: _178  and  _179
REMARK   70  A    between atoms: _179  and  _180
REMARK   71  A    between atoms: _180  and  _181
REMARK   72  A    between atoms: _190  and  _192
REMARK   73  A    between atoms: _192  and  _193
REMARK   74  A    between atoms: _192  and  _195
REMARK   75  A    between atoms: _195  and  _196
REMARK   76  A    between atoms: _196  and  _197
REMARK   77  A    between atoms: _200  and  _202
REMARK   78  A    between atoms: _202  and  _203
REMARK   79  A    between atoms: _202  and  _205
REMARK   80  A    between atoms: _205  and  _206
REMARK   81  A    between atoms: _211  and  _213
REMARK   82  A    between atoms: _213  and  _214
REMARK   83  A    between atoms: _213  and  _216
REMARK   84  A    between atoms: _216  and  _217
REMARK   85  A    between atoms: _220  and  _222
REMARK   86  A    between atoms: _222  and  _223
REMARK   87  A    between atoms: _222  and  _225
REMARK   88  A    between atoms: _225  and  _226
REMARK   89  A    between atoms: _229  and  _231
REMARK   90  A    between atoms: _231  and  _232
REMARK   91  A    between atoms: _231  and  _234
REMARK   92  A    between atoms: _234  and  _235
REMARK   93  A    between atoms: _241  and  _242
REMARK   94  A    between atoms: _247  and  _249
REMARK   95  A    between atoms: _249  and  _250
REMARK   96  A    between atoms: _249  and  _252
REMARK   97  A    between atoms: _252  and  _253
REMARK   98  A    between atoms: _258  and  _259
REMARK   99  A    between atoms: _261  and  _263
REMARK  100  A    between atoms: _263  and  _264
REMARK  101  A    between atoms: _263  and  _266
REMARK  102  A    between atoms: _266  and  _267
REMARK  103  A    between atoms: _270  and  _272
REMARK  104  A    between atoms: _272  and  _273
REMARK  105  A    between atoms: _272  and  _275
REMARK  106  A    between atoms: _275  and  _276
REMARK  107  A    between atoms: _281  and  _283
REMARK  108  A    between atoms: _283  and  _284
REMARK  109  A    between atoms: _283  and  _286
REMARK  110  A    between atoms: _286  and  _287
REMARK  111  A    between atoms: _292  and  _294
REMARK  112  A    between atoms: _294  and  _295
REMARK  113  A    between atoms: _294  and  _297
REMARK  114  A    between atoms: _297  and  _298
REMARK  115  A    between atoms: _301  and  _303
REMARK  116  A    between atoms: _303  and  _304
REMARK  117  A    between atoms: _303  and  _306
REMARK  118  A    between atoms: _309  and  _311
REMARK  119  A    between atoms: _311  and  _312
REMARK  120  A    between atoms: _311  and  _314
REMARK  121  A    between atoms: _314  and  _315
REMARK  122  A    between atoms: _319  and  _320
REMARK  123  A    between atoms: _325  and  _327
REMARK  124  A    between atoms: _327  and  _328
REMARK  125  A    between atoms: _327  and  _330
REMARK  126  A    between atoms: _330  and  _331
REMARK  127  A    between atoms: _331  and  _332
REMARK  128  A    between atoms: _335  and  _337
REMARK  129  A    between atoms: _337  and  _338
REMARK  130  A    between atoms: _341  and  _343
REMARK  131  A    between atoms: _343  and  _344
REMARK  132  A    between atoms: _343  and  _346
REMARK  133  A    between atoms: _346  and  _347
REMARK  134  A    between atoms: _350  and  _352
REMARK  135  A    between atoms: _352  and  _353
REMARK  136  A    between atoms: _352  and  _355
REMARK  137  A    between atoms: _355  and  _356
REMARK  138  A    between atoms: _356  and  _357
REMARK  139  A    between atoms: _360  and  _362
REMARK  140  A    between atoms: _362  and  _363
REMARK  141  A    between atoms: _362  and  _365
REMARK  142  A    between atoms: _365  and  _366
REMARK  143  A    between atoms: _366  and  _367
REMARK  144  A    between atoms: _369  and  _371
REMARK  145  A    between atoms: _371  and  _372
REMARK  146  A    between atoms: _375  and  _377
REMARK  147  A    between atoms: _377  and  _378
REMARK  148  A    between atoms: _377  and  _380
REMARK  149  A    between atoms: _380  and  _381
REMARK  150  A    between atoms: _386  and  _388
REMARK  151  A    between atoms: _388  and  _389
REMARK  152  A    between atoms: _391  and  _393
REMARK  153  A    between atoms: _393  and  _394
REMARK  154  A    between atoms: _393  and  _396
REMARK  155  A    between atoms: _399  and  _401
REMARK  156  A    between atoms: _401  and  _402
REMARK  157  A    between atoms: _405  and  _407
REMARK  158  A    between atoms: _407  and  _408
REMARK  159  A    between atoms: _407  and  _410
REMARK  160  A    between atoms: _410  and  _411
REMARK  161  A    between atoms: _416  and  _418
REMARK  162  A    between atoms: _418  and  _419
REMARK  163  A    between atoms: _418  and  _421
REMARK  164  A    between atoms: _421  and  _422
REMARK  165  A    between atoms: _428  and  _430
REMARK  166  A    between atoms: _430  and  _431
REMARK  167  A    between atoms: _430  and  _433
REMARK  168  A    between atoms: _433  and  _434
REMARK  169  A    between atoms: _434  and  _435
REMARK  170  A    between atoms: _435  and  _436
REMARK  171  A    between atoms: _436  and  _437
REMARK  172  A    between atoms: _441  and  _443
REMARK  173  A    between atoms: _443  and  _444
REMARK  174  A    between atoms: _443  and  _446
REMARK  175  A    between atoms: _446  and  _447
REMARK  176  A    between atoms: _450  and  _452
REMARK  177  A    between atoms: _452  and  _453
REMARK  178  A    between atoms: _452  and  _455
REMARK  179  A    between atoms: _455  and  _456
REMARK  180  A    between atoms: _461  and  _463
REMARK  181  A    between atoms: _463  and  _464
REMARK  182  A    between atoms: _466  and  _468
REMARK  183  A    between atoms: _468  and  _469
REMARK  184  A    between atoms: _468  and  _471
REMARK  185  A    between atoms: _471  and  _472
REMARK  186  A    between atoms: _475  and  _477
REMARK  187  A    between atoms: _477  and  _478
REMARK  188  A    between atoms: _477  and  _480
REMARK  189  A    between atoms: _480  and  _481
REMARK  190  A    between atoms: _481  and  _482
REMARK  191  A    between atoms: _482  and  _483
REMARK  192  A    between atoms: _483  and  _484
REMARK  193  A    between atoms: _488  and  _490
REMARK  194  A    between atoms: _490  and  _491
REMARK  195  A    between atoms: _490  and  _493
REMARK  196  A    between atoms: _493  and  _494
REMARK  197  A    between atoms: _494  and  _495
REMARK  198  A    between atoms: _495  and  _496
REMARK  199  A    between atoms: _505  and  _507
REMARK  200  A    between atoms: _507  and  _508
REMARK  201  A    between atoms: _507  and  _510
REMARK  202  A    between atoms: _510  and  _511
REMARK  203  A    between atoms: _516  and  _518
REMARK  204  A    between atoms: _518  and  _519
REMARK  205  A    between atoms: _518  and  _521
REMARK  206  A    between atoms: _521  and  _522
REMARK  207  A    between atoms: _527  and  _528
REMARK  208  A    between atoms: _530  and  _532
REMARK  209  A    between atoms: _532  and  _533
REMARK  210  A    between atoms: _532  and  _535
REMARK  211  A    between atoms: _535  and  _536
REMARK  212  A    between atoms: _536  and  _537
REMARK  213  A    between atoms: _537  and  _538
REMARK  214  A    between atoms: _538  and  _539
REMARK  215  A    between atoms: _543  and  _545
REMARK  216  A    between atoms: _545  and  _546
REMARK  217  A    between atoms: _545  and  _548
REMARK  218  A    between atoms: _548  and  _549
REMARK  219  A    between atoms: _551  and  _553
REMARK  220  A    between atoms: _553  and  _554
REMARK  221  A    between atoms: _553  and  _556
REMARK  222  A    between atoms: _556  and  _557
REMARK  223  A    between atoms: _560  and  _562
REMARK  224  A    between atoms: _562  and  _563
REMARK  225  A    between atoms: _562  and  _565
REMARK  226  A    between atoms: _565  and  _566
REMARK  227  A    between atoms: _566  and  _567
REMARK  228  A    between atoms: _570  and  _572
REMARK  229  A    between atoms: _572  and  _573
REMARK  230  A    between atoms: _576  and  _578
REMARK  231  A    between atoms: _578  and  _579
REMARK  232  A    between atoms: _578  and  _581
REMARK  233  A    between atoms: _581  and  _582
REMARK  234  A    between atoms: _584  and  _586
REMARK  235  A    between atoms: _586  and  _587
REMARK  236  A    between atoms: _589  and  _591
REMARK  237  A    between atoms: _591  and  _592
REMARK  238  A    between atoms: _591  and  _594
REMARK  239  A    between atoms: _594  and  _595
REMARK  240  A    between atoms: _598  and  _600
REMARK  241  A    between atoms: _600  and  _601
REMARK  242  A    between atoms: _603  and  _605
REMARK  243  A    between atoms: _605  and  _606
REMARK  244  A    between atoms: _605  and  _608
REMARK  245  A    between atoms: _608  and  _609
REMARK  246  A    between atoms: _614  and  _616
REMARK  247  A    between atoms: _616  and  _617
REMARK  248  A    between atoms: _616  and  _619
REMARK  249  A    between atoms: _619  and  _620
REMARK  250  A    between atoms: _620  and  _621
REMARK  251  A    between atoms: _628  and  _629
REMARK  252  A    between atoms: _629  and  _645
REMARK  253  A    between atoms: _630  and  _632
REMARK  254  A    between atoms: _632  and  _633
REMARK  255  A    between atoms: _633  and  _634
REMARK  256  A    between atoms: _638  and  _640
REMARK  257  A    between atoms: _640  and  _641
REMARK  258  A    between atoms: _640  and  _648
REMARK  259  A    between atoms: _641  and  _642
REMARK  260  A    between atoms: _642  and  _643
REMARK  261  A    between atoms: _643  and  _644
REMARK  262  A    between atoms: _644  and  _645
REMARK  263  A    between atoms: _650  and  _652
REMARK  264  A    between atoms: _652  and  _653
REMARK  265  A    between atoms: _652  and  _655
REMARK  266  A    between atoms: _655  and  _656
REMARK  267  A    between atoms: _659  and  _661
REMARK  268  A    between atoms: _661  and  _662
REMARK  269  A    between atoms: _664  and  _666
REMARK  270  A    between atoms: _666  and  _667
REMARK  271  A    between atoms: _670  and  _672
REMARK  272  A    between atoms: _672  and  _673
REMARK  273  A    between atoms: _672  and  _675
REMARK  274  A    between atoms: _675  and  _676
REMARK  275  A    between atoms: _679  and  _681
REMARK  276  A    between atoms: _681  and  _682
REMARK  277  A    between atoms: _681  and  _684
REMARK  278  A    between atoms: _684  and  _685
REMARK  279  A    between atoms: _690  and  _691
REMARK                            x       y       z     vdW  Elec       q    Type
REMARK                         _______ _______ _______ _____ _____    ______ ____
ROOT
ATOM      1  CG  TYR A   1      25.404  22.913  35.853  0.00  0.00    -0.020 A 
ATOM      2  CD2 TYR A   1      24.356  23.366  36.698  0.00  0.00    -0.001 A 
ATOM      3  CE2 TYR A   1      23.806  24.644  36.535  0.00  0.00    +0.036 A 
ATOM      4  CZ  TYR A   1      24.286  25.442  35.495  0.00  0.00    +0.134 A 
ATOM      5  CE1 TYR A   1      25.274  25.017  34.644  0.00  0.00    +0.036 A 
ATOM      6  CD1 TYR A   1      25.839  23.753  34.821  0.00  0.00    -0.001 A 
ENDROOT
BRANCH   4   7
ATOM      7  OH  TYR A   1      23.768  26.669  35.243  0.00  0.00    -0.506 OA
ATOM      8  HH  TYR A   1      24.487  27.347  35.297  0.00  0.00    +0.292 HD
ENDBRANCH   4   7
BRANCH   1   9
ATOM      9  CB  TYR A   1      26.003  21.544  35.978  0.00  0.00    +0.051 C 
BRANCH   9  10
ATOM     10  CA  TYR A   1      25.695  20.759  37.209  0.00  0.00    +0.137 C 
BRANCH  10  11
ATOM     11  N   TYR A   1      26.802  19.876  37.465  0.00  0.00    -0.239 NA
ATOM     12  H   TYR A   1      27.307  19.417  36.680  0.00  0.00    +0.142 HD
ENDBRANCH  10  11
BRANCH  10  13
ATOM     13  C   TYR A   1      24.341  19.996  37.102  0.00  0.00    +0.224 C 
ATOM     14  O   TYR A   1      23.818  19.756  36.010  0.00  0.00    -0.287 OA
ENDBRANCH  10  13
ENDBRANCH   9  10
ENDBRANCH   1   9
TORSDOF 5
REMARK  Name = ../refined-set-2016/4eky/4eky_pocket.pdb
REMARK  279 active torsions:
REMARK  status: ('A' for Active; 'I' for Inactive)
REMARK    1  A    between atoms: _1  and  _3
REMARK    2  A    between atoms: _3  and  _4
REMARK    3  A    between atoms: _3  and  _6
REMARK    4  A    between atoms: _6  and  _7
REMARK    5  A    between atoms: _12  and  _13
REMARK    6  A    between atoms: _15  and  _17
REMARK    7  A    between atoms: _17  and  _18
REMARK    8  A    between atoms: _17  and  _20
REMARK    9  A    between atoms: _20  and  _21
REMARK   10  A    between atoms: _21  and  _22
REMARK   11  A    between atoms: _25  and  _27
REMARK   12  A    between atoms: _27  and  _28
REMARK   13  A    between atoms: _27  and  _30
REMARK   14  A    between atoms: _30  and  _31
REMARK   15  A    between atoms: _36  and  _37
REMARK   16  A    between atoms: _39  and  _41
REMARK   17  A    between atoms: _41  and  _42
REMARK   18  A    between atoms: _41  and  _44
REMARK   19  A    between atoms: _44  and  _45
REMARK   20  A    between atoms: _50  and  _52
REMARK   21  A    between atoms: _52  and  _53
REMARK   22  A    between atoms: _55  and  _57
REMARK   23  A    between atoms: _57  and  _58
REMARK   24  A    between atoms: _60  and  _62
REMARK   25  A    between atoms: _62  and  _63
REMARK   26  A    between atoms: _62  and  _65
REMARK   27  A    between atoms: _65  and  _66
REMARK   28  A    between atoms: _69  and  _71
REMARK   29  A    between atoms: _71  and  _72
REMARK   30  A    between atoms: _74  and  _76
REMARK   31  A    between atoms: _76  and  _77
REMARK   32  A    between atoms: _76  and  _79
REMARK   33  A    between atoms: _79  and  _80
REMARK   34  A    between atoms: _80  and  _81
REMARK   35  A    between atoms: _81  and  _82
REMARK   36  A    between atoms: _91  and  _93
REMARK   37  A    between atoms: _93  and  _94
REMARK   38  A    between atoms: _93  and  _96
REMARK   39  A    between atoms: _96  and  _97
REMARK   40  A    between atoms: _100  and  _102
REMARK   41  A    between atoms: _102  and  _103
REMARK   42  A    between atoms: _106  and  _108
REMARK   43  A    between atoms: _108  and  _109
REMARK   44  A    between atoms: _108  and  _111
REMARK   45  A    between atoms: _111  and  _112
REMARK   46  A    between atoms: _118  and  _120
REMARK   47  A    between atoms: _120  and  _121
REMARK   48  A    between atoms: _120  and  _123
REMARK   49  A    between atoms: _123  and  _124
REMARK   50  A    between atoms: _129  and  _131
REMARK   51  A    between atoms: _131  and  _132
REMARK   52  A    between atoms: _131  and  _134
REMARK   53  A    between atoms: _134  and  _135
REMARK   54  A    between atoms: _138  and  _140
REMARK   55  A    between atoms: _140  and  _141
REMARK   56  A    between atoms: _140  and  _143
REMARK   57  A    between atoms: _143  and  _144
REMARK   58  A    between atoms: _149  and  _151
REMARK   59  A    between atoms: _151  and  _152
REMARK   60  A    between atoms: _151  and  _154
REMARK   61  A    between atoms: _154  and  _155
REMARK   62  A    between atoms: _161  and  _163
REMARK   63  A    between atoms: _163  and  _164
REMARK   64  A    between atoms: _163  and  _166
REMARK   65  A    between atoms: _166  and  _167
REMARK   66  A    between atoms: _173  and  _175
REMARK   67  A    between atoms: _175  and  _176
REMARK   68  A    between atoms: _175  and  _178
REMARK   69  A    between atoms: _178  and  _179
REMARK   70  A    between atoms: _179  and  _180
REMARK   71  A    between atoms: _180  and  _181
REMARK   72  A    between atoms: _190  and  _192
REMARK   73  A    between atoms: _192  and  _193
REMARK   74  A    between atoms: _192  and  _195
REMARK   75  A    between atoms: _195  and  _196
REMARK   76  A    between atoms: _196  and  _197
REMARK   77  A    between atoms: _200  and  _202
REMARK   78  A    between atoms: _202  and  _203
REMARK   79  A    between atoms: _202  and  _205
REMARK   80  A    between atoms: _205  and  _206
REMARK   81  A    between atoms: _211  and  _213
REMARK   82  A    between atoms: _213  and  _214
REMARK   83  A    between atoms: _213  and  _216
REMARK   84  A    between atoms: _216  and  _217
REMARK   85  A    between atoms: _220  and  _222
REMARK   86  A    between atoms: _222  and  _223
REMARK   87  A    between atoms: _222  and  _225
REMARK   88  A    between atoms: _225  and  _226
REMARK   89  A    between atoms: _229  and  _231
REMARK   90  A    between atoms: _231  and  _232
REMARK   91  A    between atoms: _231  and  _234
REMARK   92  A    between atoms: _234  and  _235
REMARK   93  A    between atoms: _241  and  _242
REMARK   94  A    between atoms: _247  and  _249
REMARK   95  A    between atoms: _249  and  _250
REMARK   96  A    between atoms: _249  and  _252
REMARK   97  A    between atoms: _252  and  _253
REMARK   98  A    between atoms: _258  and  _259
REMARK   99  A    between atoms: _261  and  _263
REMARK  100  A    between atoms: _263  and  _264
REMARK  101  A    between atoms: _263  and  _266
REMARK  102  A    between atoms: _266  and  _267
REMARK  103  A    between atoms: _270  and  _272
REMARK  104  A    between atoms: _272  and  _273
REMARK  105  A    between atoms: _272  and  _275
REMARK  106  A    between atoms: _275  and  _276
REMARK  107  A    between atoms: _281  and  _283
REMARK  108  A    between atoms: _283  and  _284
REMARK  109  A    between atoms: _283  and  _286
REMARK  110  A    between atoms: _286  and  _287
REMARK  111  A    between atoms: _292  and  _294
REMARK  112  A    between atoms: _294  and  _295
REMARK  113  A    between atoms: _294  and  _297
REMARK  114  A    between atoms: _297  and  _298
REMARK  115  A    between atoms: _301  and  _303
REMARK  116  A    between atoms: _303  and  _304
REMARK  117  A    between atoms: _303  and  _306
REMARK  118  A    between atoms: _309  and  _311
REMARK  119  A    between atoms: _311  and  _312
REMARK  120  A    between atoms: _311  and  _314
REMARK  121  A    between atoms: _314  and  _315
REMARK  122  A    between atoms: _319  and  _320
REMARK  123  A    between atoms: _325  and  _327
REMARK  124  A    between atoms: _327  and  _328
REMARK  125  A    between atoms: _327  and  _330
REMARK  126  A    between atoms: _330  and  _331
REMARK  127  A    between atoms: _331  and  _332
REMARK  128  A    between atoms: _335  and  _337
REMARK  129  A    between atoms: _337  and  _338
REMARK  130  A    between atoms: _341  and  _343
REMARK  131  A    between atoms: _343  and  _344
REMARK  132  A    between atoms: _343  and  _346
REMARK  133  A    between atoms: _346  and  _347
REMARK  134  A    between atoms: _350  and  _352
REMARK  135  A    between atoms: _352  and  _353
REMARK  136  A    between atoms: _352  and  _355
REMARK  137  A    between atoms: _355  and  _356
REMARK  138  A    between atoms: _356  and  _357
REMARK  139  A    between atoms: _360  and  _362
REMARK  140  A    between atoms: _362  and  _363
REMARK  141  A    between atoms: _362  and  _365
REMARK  142  A    between atoms: _365  and  _366
REMARK  143  A    between atoms: _366  and  _367
REMARK  144  A    between atoms: _369  and  _371
REMARK  145  A    between atoms: _371  and  _372
REMARK  146  A    between atoms: _375  and  _377
REMARK  147  A    between atoms: _377  and  _378
REMARK  148  A    between atoms: _377  and  _380
REMARK  149  A    between atoms: _380  and  _381
REMARK  150  A    between atoms: _386  and  _388
REMARK  151  A    between atoms: _388  and  _389
REMARK  152  A    between atoms: _391  and  _393
REMARK  153  A    between atoms: _393  and  _394
REMARK  154  A    between atoms: _393  and  _396
REMARK  155  A    between atoms: _399  and  _401
REMARK  156  A    between atoms: _401  and  _402
REMARK  157  A    between atoms: _405  and  _407
REMARK  158  A    between atoms: _407  and  _408
REMARK  159  A    between atoms: _407  and  _410
REMARK  160  A    between atoms: _410  and  _411
REMARK  161  A    between atoms: _416  and  _418
REMARK  162  A    between atoms: _418  and  _419
REMARK  163  A    between atoms: _418  and  _421
REMARK  164  A    between atoms: _421  and  _422
REMARK  165  A    between atoms: _428  and  _430
REMARK  166  A    between atoms: _430  and  _431
REMARK  167  A    between atoms: _430  and  _433
REMARK  168  A    between atoms: _433  and  _434
REMARK  169  A    between atoms: _434  and  _435
REMARK  170  A    between atoms: _435  and  _436
REMARK  171  A    between atoms: _436  and  _437
REMARK  172  A    between atoms: _441  and  _443
REMARK  173  A    between atoms: _443  and  _444
REMARK  174  A    between atoms: _443  and  _446
REMARK  175  A    between atoms: _446  and  _447
REMARK  176  A    between atoms: _450  and  _452
REMARK  177  A    between atoms: _452  and  _453
REMARK  178  A    between atoms: _452  and  _455
REMARK  179  A    between atoms: _455  and  _456
REMARK  180  A    between atoms: _461  and  _463
REMARK  181  A    between atoms: _463  and  _464
REMARK  182  A    between atoms: _466  and  _468
REMARK  183  A    between atoms: _468  and  _469
REMARK  184  A    between atoms: _468  and  _471
REMARK  185  A    between atoms: _471  and  _472
REMARK  186  A    between atoms: _475  and  _477
REMARK  187  A    between atoms: _477  and  _478
REMARK  188  A    between atoms: _477  and  _480
REMARK  189  A    between atoms: _480  and  _481
REMARK  190  A    between atoms: _481  and  _482
REMARK  191  A    between atoms: _482  and  _483
REMARK  192  A    between atoms: _483  and  _484
REMARK  193  A    between atoms: _488  and  _490
REMARK  194  A    between atoms: _490  and  _491
REMARK  195  A    between atoms: _490  and  _493
REMARK  196  A    between atoms: _493  and  _494
REMARK  197  A    between atoms: _494  and  _495
REMARK  198  A    between atoms: _495  and  _496
REMARK  199  A    between atoms: _505  and  _507
REMARK  200  A    between atoms: _507  and  _508
REMARK  201  A    between atoms: _507  and  _510
REMARK  202  A    between atoms: _510  and  _511
REMARK  203  A    between atoms: _516  and  _518
REMARK  204  A    between atoms: _518  and  _519
REMARK  205  A    between atoms: _518  and  _521
REMARK  206  A    between atoms: _521  and  _522
REMARK  207  A    between atoms: _527  and  _528
REMARK  208  A    between atoms: _530  and  _532
REMARK  209  A    between atoms: _532  and  _533
REMARK  210  A    between atoms: _532  and  _535
REMARK  211  A    between atoms: _535  and  _536
REMARK  212  A    between atoms: _536  and  _537
REMARK  213  A    between atoms: _537  and  _538
REMARK  214  A    between atoms: _538  and  _539
REMARK  215  A    between atoms: _543  and  _545
REMARK  216  A    between atoms: _545  and  _546
REMARK  217  A    between atoms: _545  and  _548
REMARK  218  A    between atoms: _548  and  _549
REMARK  219  A    between atoms: _551  and  _553
REMARK  220  A    between atoms: _553  and  _554
REMARK  221  A    between atoms: _553  and  _556
REMARK  222  A    between atoms: _556  and  _557
REMARK  223  A    between atoms: _560  and  _562
REMARK  224  A    between atoms: _562  and  _563
REMARK  225  A    between atoms: _562  and  _565
REMARK  226  A    between atoms: _565  and  _566
REMARK  227  A    between atoms: _566  and  _567
REMARK  228  A    between atoms: _570  and  _572
REMARK  229  A    between atoms: _572  and  _573
REMARK  230  A    between atoms: _576  and  _578
REMARK  231  A    between atoms: _578  and  _579
REMARK  232  A    between atoms: _578  and  _581
REMARK  233  A    between atoms: _581  and  _582
REMARK  234  A    between atoms: _584  and  _586
REMARK  235  A    between atoms: _586  and  _587
REMARK  236  A    between atoms: _589  and  _591
REMARK  237  A    between atoms: _591  and  _592
REMARK  238  A    between atoms: _591  and  _594
REMARK  239  A    between atoms: _594  and  _595
REMARK  240  A    between atoms: _598  and  _600
REMARK  241  A    between atoms: _600  and  _601
REMARK  242  A    between atoms: _603  and  _605
REMARK  243  A    between atoms: _605  and  _606
REMARK  244  A    between atoms: _605  and  _608
REMARK  245  A    between atoms: _608  and  _609
REMARK  246  A    between atoms: _614  and  _616
REMARK  247  A    between atoms: _616  and  _617
REMARK  248  A    between atoms: _616  and  _619
REMARK  249  A    between atoms: _619  and  _620
REMARK  250  A    between atoms: _620  and  _621
REMARK  251  A    between atoms: _628  and  _629
REMARK  252  A    between atoms: _629  and  _645
REMARK  253  A    between atoms: _630  and  _632
REMARK  254  A    between atoms: _632  and  _633
REMARK  255  A    between atoms: _633  and  _634
REMARK  256  A    between atoms: _638  and  _640
REMARK  257  A    between atoms: _640  and  _641
REMARK  258  A    between atoms: _640  and  _648
REMARK  259  A    between atoms: _641  and  _642
REMARK  260  A    between atoms: _642  and  _643
REMARK  261  A    between atoms: _643  and  _644
REMARK  262  A    between atoms: _644  and  _645
REMARK  263  A    between atoms: _650  and  _652
REMARK  264  A    between atoms: _652  and  _653
REMARK  265  A    between atoms: _652  and  _655
REMARK  266  A    between atoms: _655  and  _656
REMARK  267  A    between atoms: _659  and  _661
REMARK  268  A    between atoms: _661  and  _662
REMARK  269  A    between atoms: _664  and  _666
REMARK  270  A    between atoms: _666  and  _667
REMARK  271  A    between atoms: _670  and  _672
REMARK  272  A    between atoms: _672  and  _673
REMARK  273  A    between atoms: _672  and  _675
REMARK  274  A    between atoms: _675  and  _676
REMARK  275  A    between atoms: _679  and  _681
REMARK  276  A    between atoms: _681  and  _682
REMARK  277  A    between atoms: _681  and  _684
REMARK  278  A    between atoms: _684  and  _685
REMARK  279  A    between atoms: _690  and  _691
REMARK                            x       y       z     vdW  Elec       q    Type
REMARK                         _______ _______ _______ _____ _____    ______ ____
ROOT
ATOM      1  C   GLY A   5      28.558  19.826  34.444  0.00  0.00    +0.243 C 
ATOM      2  O   GLY A   5      28.192  18.906  35.137  0.00  0.00    -0.273 OA
ATOM      3  N   ARG A   6      27.900  20.212  33.359  0.00  0.00    -0.297 N 
ATOM      4  H   ARG A   6      28.231  21.046  32.833  0.00  0.00    +0.150 HD
ENDROOT
BRANCH   3   5
ATOM      5  CA  ARG A   6      26.729  19.496  32.891  0.00  0.00    +0.149 C 
BRANCH   5   6
ATOM      6  C   ARG A   6      27.046  18.105  32.286  0.00  0.00    +0.241 C 
ATOM      7  O   ARG A   6      26.253  17.185  32.448  0.00  0.00    -0.273 OA
ATOM      8  N   LEU A   7      28.215  17.937  31.679  0.00  0.00    -0.297 N 
ATOM      9  H   LEU A   7      28.855  18.752  31.590  0.00  0.00    +0.150 HD
BRANCH   8  10
ATOM     10  CA  LEU A   7      28.642  16.629  31.123  0.00  0.00    +0.149 C 
BRANCH  10  11
ATOM     11  C   LEU A   7      28.822  15.672  32.289  0.00  0.00    +0.241 C 
ATOM     12  N   ALA A   8      29.429  16.154  33.374  0.00  0.00    -0.298 N 
ATOM     13  H   ALA A   8      29.869  17.095  33.326  0.00  0.00    +0.150 HD
ATOM     14  O   LEU A   7      28.385  14.524  32.233  0.00  0.00    -0.273 OA
BRANCH  12  15
ATOM     15  CA  ALA A   8      29.497  15.418  34.609  0.00  0.00    +0.137 C 
ATOM     16  CB  ALA A   8      30.078  16.262  35.686  0.00  0.00    +0.030 C 
BRANCH  15  17
ATOM     17  C   ALA A   8      28.144  14.880  35.041  0.00  0.00    +0.227 C 
ATOM     18  O   ALA A   8      28.034  13.701  35.364  0.00  0.00    -0.286 OA
ENDBRANCH  15  17
ENDBRANCH  12  15
ENDBRANCH  10  11
BRANCH  10  19
ATOM     19  CB  LEU A   7      29.971  16.772  30.394  0.00  0.00    +0.029 C 
BRANCH  19  20
ATOM     20  CG  LEU A   7      30.519  15.570  29.644  0.00  0.00    +0.002 C 
ATOM     21  CD2 LEU A   7      32.063  15.572  29.567  0.00  0.00    +0.000 C 
ATOM     22  CD1 LEU A   7      29.944  15.533  28.242  0.00  0.00    +0.000 C 
ENDBRANCH  19  20
ENDBRANCH  10  19
ENDBRANCH   8  10
ENDBRANCH   5   6
BRANCH   5  23
ATOM     23  CB  ARG A   6      25.910  20.366  31.949  0.00  0.00    +0.033 C 
BRANCH  23  24
ATOM     24  CG  ARG A   6      24.651  19.678  31.441  0.00  0.00    +0.045 C 
BRANCH  24  25
ATOM     25  CD  ARG A   6      23.658  19.372  32.601  0.00  0.00    +0.174 C 
BRANCH  25  26
ATOM     26  NE  ARG A   6      23.192  18.004  32.504  0.00  0.00    -0.265 N 
ATOM     27  CZ  ARG A   6      22.398  17.403  33.371  0.00  0.00    +0.342 C 
ATOM     28  NH2 ARG A   6      21.967  18.066  34.441  0.00  0.00    -0.292 N 
ATOM     29 HH21 ARG A   6      21.341  17.597  35.127  0.00  0.00    +0.255 HD
ATOM     30 HH22 ARG A   6      22.256  19.054  34.592  0.00  0.00    +0.255 HD
ATOM     31  NH1 ARG A   6      22.035  16.133  33.146  0.00  0.00    -0.292 N 
ATOM     32 HH11 ARG A   6      21.410  15.644  33.818  0.00  0.00    +0.255 HD
ATOM     33 HH12 ARG A   6      22.378  15.636  32.299  0.00  0.00    +0.255 HD
ATOM     34  HE  ARG A   6      23.509  17.449  31.683  0.00  0.00    +0.259 HD
ENDBRANCH  25  26
ENDBRANCH  24  25
ENDBRANCH  23  24
ENDBRANCH   5  23
ENDBRANCH   3   5
BRANCH   1  35
ATOM     35  CA  GLY A   5      29.806  20.611  34.769  0.00  0.00    +0.176 C 
BRANCH  35  37
ATOM     36  C   LEU A   4      31.204  20.230  32.824  0.00  0.00    +0.241 C 
ATOM     37  N   GLY A   5      30.483  21.089  33.554  0.00  0.00    -0.295 N 
ATOM     38  H   GLY A   5      30.402  22.085  33.265  0.00  0.00    +0.150 HD
ATOM     39  O   LEU A   4      31.190  19.020  33.067  0.00  0.00    -0.273 OA
BRANCH  36  40
ATOM     40  CA  LEU A   4      31.972  20.784  31.586  0.00  0.00    +0.149 C 
BRANCH  40  42
ATOM     41  C   GLY A   3      29.952  21.337  30.325  0.00  0.00    +0.243 C 
ATOM     42  N   LEU A   4      31.089  21.722  30.890  0.00  0.00    -0.297 N 
ATOM     43  H   LEU A   4      31.362  22.724  30.837  0.00  0.00    +0.150 HD
ATOM     44  O   GLY A   3      29.539  20.182  30.365  0.00  0.00    -0.273 OA
BRANCH  41  45
ATOM     45  CA  GLY A   3      29.168  22.428  29.634  0.00  0.00    +0.176 C 
BRANCH  45  48
ATOM     46  C   GLY A   2      28.516  23.862  31.456  0.00  0.00    +0.243 C 
ATOM     47  O   GLY A   2      28.181  22.891  32.164  0.00  0.00    -0.273 OA
ATOM     48  N   GLY A   3      29.163  23.717  30.313  0.00  0.00    -0.295 N 
ATOM     49  H   GLY A   3      29.670  24.525  29.897  0.00  0.00    +0.150 HD
BRANCH  46  50
ATOM     50  CA  GLY A   2      28.245  25.275  31.912  0.00  0.00    +0.176 C 
BRANCH  50  53
ATOM     51  C   ASN A   1      28.626  26.634  33.941  0.00  0.00    +0.239 C 
ATOM     52  O   ASN A   1      27.912  27.546  33.567  0.00  0.00    -0.274 OA
ATOM     53  N   GLY A   2      28.825  25.522  33.234  0.00  0.00    -0.296 N 
ATOM     54  H   GLY A   2      29.430  24.784  33.647  0.00  0.00    +0.150 HD
BRANCH  51  55
ATOM     55  CA  ASN A   1      29.364  26.756  35.253  0.00  0.00    +0.154 C 
BRANCH  55  56
ATOM     56  N   ASN A   1      29.368  25.528  36.044  0.00  0.00    -0.238 NA
ATOM     57  H   ASN A   1      30.044  24.778  35.796  0.00  0.00    +0.142 HD
ENDBRANCH  55  56
BRANCH  55  58
ATOM     58  CB  ASN A   1      30.797  27.235  34.972  0.00  0.00    +0.111 C 
BRANCH  58  59
ATOM     59  CG  ASN A   1      31.394  28.008  36.148  0.00  0.00    +0.221 C 
ATOM     60  ND2 ASN A   1      32.291  27.375  36.846  0.00  0.00    -0.329 N 
ATOM     61 HD21 ASN A   1      32.700  27.820  37.692  0.00  0.00    +0.145 HD
ATOM     62 HD22 ASN A   1      32.599  26.424  36.558  0.00  0.00    +0.145 HD
ATOM     63  OD1 ASN A   1      30.998  29.139  36.453  0.00  0.00    -0.275 OA
ENDBRANCH  58  59
ENDBRANCH  55  58
ENDBRANCH  51  55
ENDBRANCH  50  53
ENDBRANCH  46  50
ENDBRANCH  45  48
ENDBRANCH  41  45
ENDBRANCH  40  42
BRANCH  40  64
ATOM     64  CB  LEU A   4      33.327  21.491  31.910  0.00  0.00    +0.029 C 
BRANCH  64  65
ATOM     65  CG  LEU A   4      34.386  20.800  32.793  0.00  0.00    +0.002 C 
ATOM     66  CD2 LEU A   4      34.011  21.059  34.187  0.00  0.00    +0.000 C 
ATOM     67  CD1 LEU A   4      35.796  21.282  32.606  0.00  0.00    +0.000 C 
ENDBRANCH  64  65
ENDBRANCH  40  64
ENDBRANCH  36  40
ENDBRANCH  35  37
ENDBRANCH   1  35
TORSDOF 26
REMARK  Name = ../refined-set-2016/4eky/4eky_pocket.pdb
REMARK  279 active torsions:
REMARK  status: ('A' for Active; 'I' for Inactive)
REMARK    1  A    between atoms: _1  and  _3
REMARK    2  A    between atoms: _3  and  _4
REMARK    3  A    between atoms: _3  and  _6
REMARK    4  A    between atoms: _6  and  _7
REMARK    5  A    between atoms: _12  and  _13
REMARK    6  A    between atoms: _15  and  _17
REMARK    7  A    between atoms: _17  and  _18
REMARK    8  A    between atoms: _17  and  _20
REMARK    9  A    between atoms: _20  and  _21
REMARK   10  A    between atoms: _21  and  _22
REMARK   11  A    between atoms: _25  and  _27
REMARK   12  A    between atoms: _27  and  _28
REMARK   13  A    between atoms: _27  and  _30
REMARK   14  A    between atoms: _30  and  _31
REMARK   15  A    between atoms: _36  and  _37
REMARK   16  A    between atoms: _39  and  _41
REMARK   17  A    between atoms: _41  and  _42
REMARK   18  A    between atoms: _41  and  _44
REMARK   19  A    between atoms: _44  and  _45
REMARK   20  A    between atoms: _50  and  _52
REMARK   21  A    between atoms: _52  and  _53
REMARK   22  A    between atoms: _55  and  _57
REMARK   23  A    between atoms: _57  and  _58
REMARK   24  A    between atoms: _60  and  _62
REMARK   25  A    between atoms: _62  and  _63
REMARK   26  A    between atoms: _62  and  _65
REMARK   27  A    between atoms: _65  and  _66
REMARK   28  A    between atoms: _69  and  _71
REMARK   29  A    between atoms: _71  and  _72
REMARK   30  A    between atoms: _74  and  _76
REMARK   31  A    between atoms: _76  and  _77
REMARK   32  A    between atoms: _76  and  _79
REMARK   33  A    between atoms: _79  and  _80
REMARK   34  A    between atoms: _80  and  _81
REMARK   35  A    between atoms: _81  and  _82
REMARK   36  A    between atoms: _91  and  _93
REMARK   37  A    between atoms: _93  and  _94
REMARK   38  A    between atoms: _93  and  _96
REMARK   39  A    between atoms: _96  and  _97
REMARK   40  A    between atoms: _100  and  _102
REMARK   41  A    between atoms: _102  and  _103
REMARK   42  A    between atoms: _106  and  _108
REMARK   43  A    between atoms: _108  and  _109
REMARK   44  A    between atoms: _108  and  _111
REMARK   45  A    between atoms: _111  and  _112
REMARK   46  A    between atoms: _118  and  _120
REMARK   47  A    between atoms: _120  and  _121
REMARK   48  A    between atoms: _120  and  _123
REMARK   49  A    between atoms: _123  and  _124
REMARK   50  A    between atoms: _129  and  _131
REMARK   51  A    between atoms: _131  and  _132
REMARK   52  A    between atoms: _131  and  _134
REMARK   53  A    between atoms: _134  and  _135
REMARK   54  A    between atoms: _138  and  _140
REMARK   55  A    between atoms: _140  and  _141
REMARK   56  A    between atoms: _140  and  _143
REMARK   57  A    between atoms: _143  and  _144
REMARK   58  A    between atoms: _149  and  _151
REMARK   59  A    between atoms: _151  and  _152
REMARK   60  A    between atoms: _151  and  _154
REMARK   61  A    between atoms: _154  and  _155
REMARK   62  A    between atoms: _161  and  _163
REMARK   63  A    between atoms: _163  and  _164
REMARK   64  A    between atoms: _163  and  _166
REMARK   65  A    between atoms: _166  and  _167
REMARK   66  A    between atoms: _173  and  _175
REMARK   67  A    between atoms: _175  and  _176
REMARK   68  A    between atoms: _175  and  _178
REMARK   69  A    between atoms: _178  and  _179
REMARK   70  A    between atoms: _179  and  _180
REMARK   71  A    between atoms: _180  and  _181
REMARK   72  A    between atoms: _190  and  _192
REMARK   73  A    between atoms: _192  and  _193
REMARK   74  A    between atoms: _192  and  _195
REMARK   75  A    between atoms: _195  and  _196
REMARK   76  A    between atoms: _196  and  _197
REMARK   77  A    between atoms: _200  and  _202
REMARK   78  A    between atoms: _202  and  _203
REMARK   79  A    between atoms: _202  and  _205
REMARK   80  A    between atoms: _205  and  _206
REMARK   81  A    between atoms: _211  and  _213
REMARK   82  A    between atoms: _213  and  _214
REMARK   83  A    between atoms: _213  and  _216
REMARK   84  A    between atoms: _216  and  _217
REMARK   85  A    between atoms: _220  and  _222
REMARK   86  A    between atoms: _222  and  _223
REMARK   87  A    between atoms: _222  and  _225
REMARK   88  A    between atoms: _225  and  _226
REMARK   89  A    between atoms: _229  and  _231
REMARK   90  A    between atoms: _231  and  _232
REMARK   91  A    between atoms: _231  and  _234
REMARK   92  A    between atoms: _234  and  _235
REMARK   93  A    between atoms: _241  and  _242
REMARK   94  A    between atoms: _247  and  _249
REMARK   95  A    between atoms: _249  and  _250
REMARK   96  A    between atoms: _249  and  _252
REMARK   97  A    between atoms: _252  and  _253
REMARK   98  A    between atoms: _258  and  _259
REMARK   99  A    between atoms: _261  and  _263
REMARK  100  A    between atoms: _263  and  _264
REMARK  101  A    between atoms: _263  and  _266
REMARK  102  A    between atoms: _266  and  _267
REMARK  103  A    between atoms: _270  and  _272
REMARK  104  A    between atoms: _272  and  _273
REMARK  105  A    between atoms: _272  and  _275
REMARK  106  A    between atoms: _275  and  _276
REMARK  107  A    between atoms: _281  and  _283
REMARK  108  A    between atoms: _283  and  _284
REMARK  109  A    between atoms: _283  and  _286
REMARK  110  A    between atoms: _286  and  _287
REMARK  111  A    between atoms: _292  and  _294
REMARK  112  A    between atoms: _294  and  _295
REMARK  113  A    between atoms: _294  and  _297
REMARK  114  A    between atoms: _297  and  _298
REMARK  115  A    between atoms: _301  and  _303
REMARK  116  A    between atoms: _303  and  _304
REMARK  117  A    between atoms: _303  and  _306
REMARK  118  A    between atoms: _309  and  _311
REMARK  119  A    between atoms: _311  and  _312
REMARK  120  A    between atoms: _311  and  _314
REMARK  121  A    between atoms: _314  and  _315
REMARK  122  A    between atoms: _319  and  _320
REMARK  123  A    between atoms: _325  and  _327
REMARK  124  A    between atoms: _327  and  _328
REMARK  125  A    between atoms: _327  and  _330
REMARK  126  A    between atoms: _330  and  _331
REMARK  127  A    between atoms: _331  and  _332
REMARK  128  A    between atoms: _335  and  _337
REMARK  129  A    between atoms: _337  and  _338
REMARK  130  A    between atoms: _341  and  _343
REMARK  131  A    between atoms: _343  and  _344
REMARK  132  A    between atoms: _343  and  _346
REMARK  133  A    between atoms: _346  and  _347
REMARK  134  A    between atoms: _350  and  _352
REMARK  135  A    between atoms: _352  and  _353
REMARK  136  A    between atoms: _352  and  _355
REMARK  137  A    between atoms: _355  and  _356
REMARK  138  A    between atoms: _356  and  _357
REMARK  139  A    between atoms: _360  and  _362
REMARK  140  A    between atoms: _362  and  _363
REMARK  141  A    between atoms: _362  and  _365
REMARK  142  A    between atoms: _365  and  _366
REMARK  143  A    between atoms: _366  and  _367
REMARK  144  A    between atoms: _369  and  _371
REMARK  145  A    between atoms: _371  and  _372
REMARK  146  A    between atoms: _375  and  _377
REMARK  147  A    between atoms: _377  and  _378
REMARK  148  A    between atoms: _377  and  _380
REMARK  149  A    between atoms: _380  and  _381
REMARK  150  A    between atoms: _386  and  _388
REMARK  151  A    between atoms: _388  and  _389
REMARK  152  A    between atoms: _391  and  _393
REMARK  153  A    between atoms: _393  and  _394
REMARK  154  A    between atoms: _393  and  _396
REMARK  155  A    between atoms: _399  and  _401
REMARK  156  A    between atoms: _401  and  _402
REMARK  157  A    between atoms: _405  and  _407
REMARK  158  A    between atoms: _407  and  _408
REMARK  159  A    between atoms: _407  and  _410
REMARK  160  A    between atoms: _410  and  _411
REMARK  161  A    between atoms: _416  and  _418
REMARK  162  A    between atoms: _418  and  _419
REMARK  163  A    between atoms: _418  and  _421
REMARK  164  A    between atoms: _421  and  _422
REMARK  165  A    between atoms: _428  and  _430
REMARK  166  A    between atoms: _430  and  _431
REMARK  167  A    between atoms: _430  and  _433
REMARK  168  A    between atoms: _433  and  _434
REMARK  169  A    between atoms: _434  and  _435
REMARK  170  A    between atoms: _435  and  _436
REMARK  171  A    between atoms: _436  and  _437
REMARK  172  A    between atoms: _441  and  _443
REMARK  173  A    between atoms: _443  and  _444
REMARK  174  A    between atoms: _443  and  _446
REMARK  175  A    between atoms: _446  and  _447
REMARK  176  A    between atoms: _450  and  _452
REMARK  177  A    between atoms: _452  and  _453
REMARK  178  A    between atoms: _452  and  _455
REMARK  179  A    between atoms: _455  and  _456
REMARK  180  A    between atoms: _461  and  _463
REMARK  181  A    between atoms: _463  and  _464
REMARK  182  A    between atoms: _466  and  _468
REMARK  183  A    between atoms: _468  and  _469
REMARK  184  A    between atoms: _468  and  _471
REMARK  185  A    between atoms: _471  and  _472
REMARK  186  A    between atoms: _475  and  _477
REMARK  187  A    between atoms: _477  and  _478
REMARK  188  A    between atoms: _477  and  _480
REMARK  189  A    between atoms: _480  and  _481
REMARK  190  A    between atoms: _481  and  _482
REMARK  191  A    between atoms: _482  and  _483
REMARK  192  A    between atoms: _483  and  _484
REMARK  193  A    between atoms: _488  and  _490
REMARK  194  A    between atoms: _490  and  _491
REMARK  195  A    between atoms: _490  and  _493
REMARK  196  A    between atoms: _493  and  _494
REMARK  197  A    between atoms: _494  and  _495
REMARK  198  A    between atoms: _495  and  _496
REMARK  199  A    between atoms: _505  and  _507
REMARK  200  A    between atoms: _507  and  _508
REMARK  201  A    between atoms: _507  and  _510
REMARK  202  A    between atoms: _510  and  _511
REMARK  203  A    between atoms: _516  and  _518
REMARK  204  A    between atoms: _518  and  _519
REMARK  205  A    between atoms: _518  and  _521
REMARK  206  A    between atoms: _521  and  _522
REMARK  207  A    between atoms: _527  and  _528
REMARK  208  A    between atoms: _530  and  _532
REMARK  209  A    between atoms: _532  and  _533
REMARK  210  A    between atoms: _532  and  _535
REMARK  211  A    between atoms: _535  and  _536
REMARK  212  A    between atoms: _536  and  _537
REMARK  213  A    between atoms: _537  and  _538
REMARK  214  A    between atoms: _538  and  _539
REMARK  215  A    between atoms: _543  and  _545
REMARK  216  A    between atoms: _545  and  _546
REMARK  217  A    between atoms: _545  and  _548
REMARK  218  A    between atoms: _548  and  _549
REMARK  219  A    between atoms: _551  and  _553
REMARK  220  A    between atoms: _553  and  _554
REMARK  221  A    between atoms: _553  and  _556
REMARK  222  A    between atoms: _556  and  _557
REMARK  223  A    between atoms: _560  and  _562
REMARK  224  A    between atoms: _562  and  _563
REMARK  225  A    between atoms: _562  and  _565
REMARK  226  A    between atoms: _565  and  _566
REMARK  227  A    between atoms: _566  and  _567
REMARK  228  A    between atoms: _570  and  _572
REMARK  229  A    between atoms: _572  and  _573
REMARK  230  A    between atoms: _576  and  _578
REMARK  231  A    between atoms: _578  and  _579
REMARK  232  A    between atoms: _578  and  _581
REMARK  233  A    between atoms: _581  and  _582
REMARK  234  A    between atoms: _584  and  _586
REMARK  235  A    between atoms: _586  and  _587
REMARK  236  A    between atoms: _589  and  _591
REMARK  237  A    between atoms: _591  and  _592
REMARK  238  A    between atoms: _591  and  _594
REMARK  239  A    between atoms: _594  and  _595
REMARK  240  A    between atoms: _598  and  _600
REMARK  241  A    between atoms: _600  and  _601
REMARK  242  A    between atoms: _603  and  _605
REMARK  243  A    between atoms: _605  and  _606
REMARK  244  A    between atoms: _605  and  _608
REMARK  245  A    between atoms: _608  and  _609
REMARK  246  A    between atoms: _614  and  _616
REMARK  247  A    between atoms: _616  and  _617
REMARK  248  A    between atoms: _616  and  _619
REMARK  249  A    between atoms: _619  and  _620
REMARK  250  A    between atoms: _620  and  _621
REMARK  251  A    between atoms: _628  and  _629
REMARK  252  A    between atoms: _629  and  _645
REMARK  253  A    between atoms: _630  and  _632
REMARK  254  A    between atoms: _632  and  _633
REMARK  255  A    between atoms: _633  and  _634
REMARK  256  A    between atoms: _638  and  _640
REMARK  257  A    between atoms: _640  and  _641
REMARK  258  A    between atoms: _640  and  _648
REMARK  259  A    between atoms: _641  and  _642
REMARK  260  A    between atoms: _642  and  _643
REMARK  261  A    between atoms: _643  and  _644
REMARK  262  A    between atoms: _644  and  _645
REMARK  263  A    between atoms: _650  and  _652
REMARK  264  A    between atoms: _652  and  _653
REMARK  265  A    between atoms: _652  and  _655
REMARK  266  A    between atoms: _655  and  _656
REMARK  267  A    between atoms: _659  and  _661
REMARK  268  A    between atoms: _661  and  _662
REMARK  269  A    between atoms: _664  and  _666
REMARK  270  A    between atoms: _666  and  _667
REMARK  271  A    between atoms: _670  and  _672
REMARK  272  A    between atoms: _672  and  _673
REMARK  273  A    between atoms: _672  and  _675
REMARK  274  A    between atoms: _675  and  _676
REMARK  275  A    between atoms: _679  and  _681
REMARK  276  A    between atoms: _681  and  _682
REMARK  277  A    between atoms: _681  and  _684
REMARK  278  A    between atoms: _684  and  _685
REMARK  279  A    between atoms: _690  and  _691
REMARK                            x       y       z     vdW  Elec       q    Type
REMARK                         _______ _______ _______ _____ _____    ______ ____
ROOT
ATOM      1  CB  PHE A   1      29.123  11.453  32.889  0.00  0.00    +0.051 C 
ENDROOT
BRANCH   1   2
ATOM      2  CG  PHE A   1      29.834  11.683  31.604  0.00  0.00    -0.020 A 
ATOM      3  CD2 PHE A   1      31.225  11.820  31.579  0.00  0.00    -0.004 A 
ATOM      4  CE2 PHE A   1      31.903  12.035  30.360  0.00  0.00    -0.000 A 
ATOM      5  CZ  PHE A   1      31.168  12.113  29.175  0.00  0.00    -0.000 A 
ATOM      6  CE1 PHE A   1      29.771  11.982  29.198  0.00  0.00    -0.000 A 
ATOM      7  CD1 PHE A   1      29.127  11.767  30.402  0.00  0.00    -0.004 A 
ENDBRANCH   1   2
BRANCH   1   8
ATOM      8  CA  PHE A   1      27.673  11.072  32.716  0.00  0.00    +0.137 C 
BRANCH   8   9
ATOM      9  N   PHE A   1      26.875  12.261  32.556  0.00  0.00    -0.239 NA
ATOM     10  H   PHE A   1      27.325  13.198  32.601  0.00  0.00    +0.142 HD
ENDBRANCH   8   9
BRANCH   8  11
ATOM     11  C   PHE A   1      27.189  10.255  33.896  0.00  0.00    +0.224 C 
ATOM     12  O   PHE A   1      27.171   8.997  33.812  0.00  0.00    -0.287 OA
ENDBRANCH   8  11
ENDBRANCH   1   8
TORSDOF 4
REMARK  Name = ../refined-set-2016/4eky/4eky_pocket.pdb
REMARK  279 active torsions:
REMARK  status: ('A' for Active; 'I' for Inactive)
REMARK    1  A    between atoms: _1  and  _3
REMARK    2  A    between atoms: _3  and  _4
REMARK    3  A    between atoms: _3  and  _6
REMARK    4  A    between atoms: _6  and  _7
REMARK    5  A    between atoms: _12  and  _13
REMARK    6  A    between atoms: _15  and  _17
REMARK    7  A    between atoms: _17  and  _18
REMARK    8  A    between atoms: _17  and  _20
REMARK    9  A    between atoms: _20  and  _21
REMARK   10  A    between atoms: _21  and  _22
REMARK   11  A    between atoms: _25  and  _27
REMARK   12  A    between atoms: _27  and  _28
REMARK   13  A    between atoms: _27  and  _30
REMARK   14  A    between atoms: _30  and  _31
REMARK   15  A    between atoms: _36  and  _37
REMARK   16  A    between atoms: _39  and  _41
REMARK   17  A    between atoms: _41  and  _42
REMARK   18  A    between atoms: _41  and  _44
REMARK   19  A    between atoms: _44  and  _45
REMARK   20  A    between atoms: _50  and  _52
REMARK   21  A    between atoms: _52  and  _53
REMARK   22  A    between atoms: _55  and  _57
REMARK   23  A    between atoms: _57  and  _58
REMARK   24  A    between atoms: _60  and  _62
REMARK   25  A    between atoms: _62  and  _63
REMARK   26  A    between atoms: _62  and  _65
REMARK   27  A    between atoms: _65  and  _66
REMARK   28  A    between atoms: _69  and  _71
REMARK   29  A    between atoms: _71  and  _72
REMARK   30  A    between atoms: _74  and  _76
REMARK   31  A    between atoms: _76  and  _77
REMARK   32  A    between atoms: _76  and  _79
REMARK   33  A    between atoms: _79  and  _80
REMARK   34  A    between atoms: _80  and  _81
REMARK   35  A    between atoms: _81  and  _82
REMARK   36  A    between atoms: _91  and  _93
REMARK   37  A    between atoms: _93  and  _94
REMARK   38  A    between atoms: _93  and  _96
REMARK   39  A    between atoms: _96  and  _97
REMARK   40  A    between atoms: _100  and  _102
REMARK   41  A    between atoms: _102  and  _103
REMARK   42  A    between atoms: _106  and  _108
REMARK   43  A    between atoms: _108  and  _109
REMARK   44  A    between atoms: _108  and  _111
REMARK   45  A    between atoms: _111  and  _112
REMARK   46  A    between atoms: _118  and  _120
REMARK   47  A    between atoms: _120  and  _121
REMARK   48  A    between atoms: _120  and  _123
REMARK   49  A    between atoms: _123  and  _124
REMARK   50  A    between atoms: _129  and  _131
REMARK   51  A    between atoms: _131  and  _132
REMARK   52  A    between atoms: _131  and  _134
REMARK   53  A    between atoms: _134  and  _135
REMARK   54  A    between atoms: _138  and  _140
REMARK   55  A    between atoms: _140  and  _141
REMARK   56  A    between atoms: _140  and  _143
REMARK   57  A    between atoms: _143  and  _144
REMARK   58  A    between atoms: _149  and  _151
REMARK   59  A    between atoms: _151  and  _152
REMARK   60  A    between atoms: _151  and  _154
REMARK   61  A    between atoms: _154  and  _155
REMARK   62  A    between atoms: _161  and  _163
REMARK   63  A    between atoms: _163  and  _164
REMARK   64  A    between atoms: _163  and  _166
REMARK   65  A    between atoms: _166  and  _167
REMARK   66  A    between atoms: _173  and  _175
REMARK   67  A    between atoms: _175  and  _176
REMARK   68  A    between atoms: _175  and  _178
REMARK   69  A    between atoms: _178  and  _179
REMARK   70  A    between atoms: _179  and  _180
REMARK   71  A    between atoms: _180  and  _181
REMARK   72  A    between atoms: _190  and  _192
REMARK   73  A    between atoms: _192  and  _193
REMARK   74  A    between atoms: _192  and  _195
REMARK   75  A    between atoms: _195  and  _196
REMARK   76  A    between atoms: _196  and  _197
REMARK   77  A    between atoms: _200  and  _202
REMARK   78  A    between atoms: _202  and  _203
REMARK   79  A    between atoms: _202  and  _205
REMARK   80  A    between atoms: _205  and  _206
REMARK   81  A    between atoms: _211  and  _213
REMARK   82  A    between atoms: _213  and  _214
REMARK   83  A    between atoms: _213  and  _216
REMARK   84  A    between atoms: _216  and  _217
REMARK   85  A    between atoms: _220  and  _222
REMARK   86  A    between atoms: _222  and  _223
REMARK   87  A    between atoms: _222  and  _225
REMARK   88  A    between atoms: _225  and  _226
REMARK   89  A    between atoms: _229  and  _231
REMARK   90  A    between atoms: _231  and  _232
REMARK   91  A    between atoms: _231  and  _234
REMARK   92  A    between atoms: _234  and  _235
REMARK   93  A    between atoms: _241  and  _242
REMARK   94  A    between atoms: _247  and  _249
REMARK   95  A    between atoms: _249  and  _250
REMARK   96  A    between atoms: _249  and  _252
REMARK   97  A    between atoms: _252  and  _253
REMARK   98  A    between atoms: _258  and  _259
REMARK   99  A    between atoms: _261  and  _263
REMARK  100  A    between atoms: _263  and  _264
REMARK  101  A    between atoms: _263  and  _266
REMARK  102  A    between atoms: _266  and  _267
REMARK  103  A    between atoms: _270  and  _272
REMARK  104  A    between atoms: _272  and  _273
REMARK  105  A    between atoms: _272  and  _275
REMARK  106  A    between atoms: _275  and  _276
REMARK  107  A    between atoms: _281  and  _283
REMARK  108  A    between atoms: _283  and  _284
REMARK  109  A    between atoms: _283  and  _286
REMARK  110  A    between atoms: _286  and  _287
REMARK  111  A    between atoms: _292  and  _294
REMARK  112  A    between atoms: _294  and  _295
REMARK  113  A    between atoms: _294  and  _297
REMARK  114  A    between atoms: _297  and  _298
REMARK  115  A    between atoms: _301  and  _303
REMARK  116  A    between atoms: _303  and  _304
REMARK  117  A    between atoms: _303  and  _306
REMARK  118  A    between atoms: _309  and  _311
REMARK  119  A    between atoms: _311  and  _312
REMARK  120  A    between atoms: _311  and  _314
REMARK  121  A    between atoms: _314  and  _315
REMARK  122  A    between atoms: _319  and  _320
REMARK  123  A    between atoms: _325  and  _327
REMARK  124  A    between atoms: _327  and  _328
REMARK  125  A    between atoms: _327  and  _330
REMARK  126  A    between atoms: _330  and  _331
REMARK  127  A    between atoms: _331  and  _332
REMARK  128  A    between atoms: _335  and  _337
REMARK  129  A    between atoms: _337  and  _338
REMARK  130  A    between atoms: _341  and  _343
REMARK  131  A    between atoms: _343  and  _344
REMARK  132  A    between atoms: _343  and  _346
REMARK  133  A    between atoms: _346  and  _347
REMARK  134  A    between atoms: _350  and  _352
REMARK  135  A    between atoms: _352  and  _353
REMARK  136  A    between atoms: _352  and  _355
REMARK  137  A    between atoms: _355  and  _356
REMARK  138  A    between atoms: _356  and  _357
REMARK  139  A    between atoms: _360  and  _362
REMARK  140  A    between atoms: _362  and  _363
REMARK  141  A    between atoms: _362  and  _365
REMARK  142  A    between atoms: _365  and  _366
REMARK  143  A    between atoms: _366  and  _367
REMARK  144  A    between atoms: _369  and  _371
REMARK  145  A    between atoms: _371  and  _372
REMARK  146  A    between atoms: _375  and  _377
REMARK  147  A    between atoms: _377  and  _378
REMARK  148  A    between atoms: _377  and  _380
REMARK  149  A    between atoms: _380  and  _381
REMARK  150  A    between atoms: _386  and  _388
REMARK  151  A    between atoms: _388  and  _389
REMARK  152  A    between atoms: _391  and  _393
REMARK  153  A    between atoms: _393  and  _394
REMARK  154  A    between atoms: _393  and  _396
REMARK  155  A    between atoms: _399  and  _401
REMARK  156  A    between atoms: _401  and  _402
REMARK  157  A    between atoms: _405  and  _407
REMARK  158  A    between atoms: _407  and  _408
REMARK  159  A    between atoms: _407  and  _410
REMARK  160  A    between atoms: _410  and  _411
REMARK  161  A    between atoms: _416  and  _418
REMARK  162  A    between atoms: _418  and  _419
REMARK  163  A    between atoms: _418  and  _421
REMARK  164  A    between atoms: _421  and  _422
REMARK  165  A    between atoms: _428  and  _430
REMARK  166  A    between atoms: _430  and  _431
REMARK  167  A    between atoms: _430  and  _433
REMARK  168  A    between atoms: _433  and  _434
REMARK  169  A    between atoms: _434  and  _435
REMARK  170  A    between atoms: _435  and  _436
REMARK  171  A    between atoms: _436  and  _437
REMARK  172  A    between atoms: _441  and  _443
REMARK  173  A    between atoms: _443  and  _444
REMARK  174  A    between atoms: _443  and  _446
REMARK  175  A    between atoms: _446  and  _447
REMARK  176  A    between atoms: _450  and  _452
REMARK  177  A    between atoms: _452  and  _453
REMARK  178  A    between atoms: _452  and  _455
REMARK  179  A    between atoms: _455  and  _456
REMARK  180  A    between atoms: _461  and  _463
REMARK  181  A    between atoms: _463  and  _464
REMARK  182  A    between atoms: _466  and  _468
REMARK  183  A    between atoms: _468  and  _469
REMARK  184  A    between atoms: _468  and  _471
REMARK  185  A    between atoms: _471  and  _472
REMARK  186  A    between atoms: _475  and  _477
REMARK  187  A    between atoms: _477  and  _478
REMARK  188  A    between atoms: _477  and  _480
REMARK  189  A    between atoms: _480  and  _481
REMARK  190  A    between atoms: _481  and  _482
REMARK  191  A    between atoms: _482  and  _483
REMARK  192  A    between atoms: _483  and  _484
REMARK  193  A    between atoms: _488  and  _490
REMARK  194  A    between atoms: _490  and  _491
REMARK  195  A    between atoms: _490  and  _493
REMARK  196  A    between atoms: _493  and  _494
REMARK  197  A    between atoms: _494  and  _495
REMARK  198  A    between atoms: _495  and  _496
REMARK  199  A    between atoms: _505  and  _507
REMARK  200  A    between atoms: _507  and  _508
REMARK  201  A    between atoms: _507  and  _510
REMARK  202  A    between atoms: _510  and  _511
REMARK  203  A    between atoms: _516  and  _518
REMARK  204  A    between atoms: _518  and  _519
REMARK  205  A    between atoms: _518  and  _521
REMARK  206  A    between atoms: _521  and  _522
REMARK  207  A    between atoms: _527  and  _528
REMARK  208  A    between atoms: _530  and  _532
REMARK  209  A    between atoms: _532  and  _533
REMARK  210  A    between atoms: _532  and  _535
REMARK  211  A    between atoms: _535  and  _536
REMARK  212  A    between atoms: _536  and  _537
REMARK  213  A    between atoms: _537  and  _538
REMARK  214  A    between atoms: _538  and  _539
REMARK  215  A    between atoms: _543  and  _545
REMARK  216  A    between atoms: _545  and  _546
REMARK  217  A    between atoms: _545  and  _548
REMARK  218  A    between atoms: _548  and  _549
REMARK  219  A    between atoms: _551  and  _553
REMARK  220  A    between atoms: _553  and  _554
REMARK  221  A    between atoms: _553  and  _556
REMARK  222  A    between atoms: _556  and  _557
REMARK  223  A    between atoms: _560  and  _562
REMARK  224  A    between atoms: _562  and  _563
REMARK  225  A    between atoms: _562  and  _565
REMARK  226  A    between atoms: _565  and  _566
REMARK  227  A    between atoms: _566  and  _567
REMARK  228  A    between atoms: _570  and  _572
REMARK  229  A    between atoms: _572  and  _573
REMARK  230  A    between atoms: _576  and  _578
REMARK  231  A    between atoms: _578  and  _579
REMARK  232  A    between atoms: _578  and  _581
REMARK  233  A    between atoms: _581  and  _582
REMARK  234  A    between atoms: _584  and  _586
REMARK  235  A    between atoms: _586  and  _587
REMARK  236  A    between atoms: _589  and  _591
REMARK  237  A    between atoms: _591  and  _592
REMARK  238  A    between atoms: _591  and  _594
REMARK  239  A    between atoms: _594  and  _595
REMARK  240  A    between atoms: _598  and  _600
REMARK  241  A    between atoms: _600  and  _601
REMARK  242  A    between atoms: _603  and  _605
REMARK  243  A    between atoms: _605  and  _606
REMARK  244  A    between atoms: _605  and  _608
REMARK  245  A    between atoms: _608  and  _609
REMARK  246  A    between atoms: _614  and  _616
REMARK  247  A    between atoms: _616  and  _617
REMARK  248  A    between atoms: _616  and  _619
REMARK  249  A    between atoms: _619  and  _620
REMARK  250  A    between atoms: _620  and  _621
REMARK  251  A    between atoms: _628  and  _629
REMARK  252  A    between atoms: _629  and  _645
REMARK  253  A    between atoms: _630  and  _632
REMARK  254  A    between atoms: _632  and  _633
REMARK  255  A    between atoms: _633  and  _634
REMARK  256  A    between atoms: _638  and  _640
REMARK  257  A    between atoms: _640  and  _641
REMARK  258  A    between atoms: _640  and  _648
REMARK  259  A    between atoms: _641  and  _642
REMARK  260  A    between atoms: _642  and  _643
REMARK  261  A    between atoms: _643  and  _644
REMARK  262  A    between atoms: _644  and  _645
REMARK  263  A    between atoms: _650  and  _652
REMARK  264  A    between atoms: _652  and  _653
REMARK  265  A    between atoms: _652  and  _655
REMARK  266  A    between atoms: _655  and  _656
REMARK  267  A    between atoms: _659  and  _661
REMARK  268  A    between atoms: _661  and  _662
REMARK  269  A    between atoms: _664  and  _666
REMARK  270  A    between atoms: _666  and  _667
REMARK  271  A    between atoms: _670  and  _672
REMARK  272  A    between atoms: _672  and  _673
REMARK  273  A    between atoms: _672  and  _675
REMARK  274  A    between atoms: _675  and  _676
REMARK  275  A    between atoms: _679  and  _681
REMARK  276  A    between atoms: _681  and  _682
REMARK  277  A    between atoms: _681  and  _684
REMARK  278  A    between atoms: _684  and  _685
REMARK  279  A    between atoms: _690  and  _691
REMARK                            x       y       z     vdW  Elec       q    Type
REMARK                         _______ _______ _______ _____ _____    ______ ____
ROOT
ATOM      1  CA  ASN A   3      36.967  28.611  29.927  0.00  0.00    +0.158 C 
ENDROOT
BRANCH   1   2
ATOM      2  C   ASN A   3      37.893  29.808  30.198  0.00  0.00    +0.241 C 
ATOM      3  N   PHE A   4      38.380  29.940  31.437  0.00  0.00    -0.297 N 
ATOM      4  H   PHE A   4      38.078  29.260  32.164  0.00  0.00    +0.150 HD
ATOM      5  O   ASN A   3      38.143  30.589  29.293  0.00  0.00    -0.273 OA
BRANCH   3   6
ATOM      6  CA  PHE A   4      39.328  31.009  31.821  0.00  0.00    +0.153 C 
BRANCH   6   7
ATOM      7  C   PHE A   4      40.036  30.654  33.125  0.00  0.00    +0.241 C 
ATOM      8  O   PHE A   4      39.391  30.422  34.134  0.00  0.00    -0.273 OA
ATOM      9  N   PHE A   5      41.359  30.595  33.123  0.00  0.00    -0.298 N 
ATOM     10  H   PHE A   5      41.894  30.828  32.262  0.00  0.00    +0.150 HD
BRANCH   9  11
ATOM     11  CA  PHE A   5      42.051  30.204  34.326  0.00  0.00    +0.141 C 
BRANCH  11  12
ATOM     12  C   PHE A   5      42.294  31.399  35.257  0.00  0.00    +0.227 C 
ATOM     13  O   PHE A   5      42.797  32.429  34.832  0.00  0.00    -0.286 OA
ENDBRANCH  11  12
BRANCH  11  14
ATOM     14  CB  PHE A   5      43.369  29.535  33.980  0.00  0.00    +0.054 C 
BRANCH  14  15
ATOM     15  CG  PHE A   5      44.231  29.199  35.190  0.00  0.00    -0.020 A 
ATOM     16  CD2 PHE A   5      43.739  28.443  36.212  0.00  0.00    -0.004 A 
ATOM     17  CE2 PHE A   5      44.541  28.138  37.307  0.00  0.00    -0.000 A 
ATOM     18  CZ  PHE A   5      45.863  28.619  37.367  0.00  0.00    -0.000 A 
ATOM     19  CE1 PHE A   5      46.367  29.373  36.324  0.00  0.00    -0.000 A 
ATOM     20  CD1 PHE A   5      45.541  29.676  35.277  0.00  0.00    -0.004 A 
ENDBRANCH  14  15
ENDBRANCH  11  14
ENDBRANCH   9  11
ENDBRANCH   6   7
BRANCH   6  21
ATOM     21  CB  PHE A   4      38.630  32.366  31.969  0.00  0.00    +0.055 C 
BRANCH  21  22
ATOM     22  CG  PHE A   4      39.592  33.531  32.034  0.00  0.00    -0.020 A 
ATOM     23  CD2 PHE A   4      39.949  34.094  33.259  0.00  0.00    -0.004 A 
ATOM     24  CE2 PHE A   4      40.872  35.161  33.346  0.00  0.00    -0.000 A 
ATOM     25  CZ  PHE A   4      41.452  35.677  32.184  0.00  0.00    -0.000 A 
ATOM     26  CE1 PHE A   4      41.087  35.129  30.932  0.00  0.00    -0.000 A 
ATOM     27  CD1 PHE A   4      40.148  34.052  30.878  0.00  0.00    -0.004 A 
ENDBRANCH  21  22
ENDBRANCH   6  21
ENDBRANCH   3   6
ENDBRANCH   1   2
BRANCH   1  29
ATOM     28  C   ASP A   2      35.158  29.468  31.346  0.00  0.00    +0.241 C 
ATOM     29  N   ASN A   3      35.928  28.452  30.938  0.00  0.00    -0.297 N 
ATOM     30  H   ASN A   3      35.780  27.512  31.358  0.00  0.00    +0.150 HD
ATOM     31  O   ASP A   2      35.193  30.589  30.840  0.00  0.00    -0.273 OA
BRANCH  28  32
ATOM     32  CA  ASP A   2      34.216  29.200  32.503  0.00  0.00    +0.160 C 
BRANCH  32  35
ATOM     33  C   ASN A   1      34.807  30.135  34.596  0.00  0.00    +0.239 C 
ATOM     34  O   ASN A   1      35.095  29.034  35.055  0.00  0.00    -0.274 OA
ATOM     35  N   ASP A   2      34.457  30.319  33.349  0.00  0.00    -0.297 N 
ATOM     36  H   ASP A   2      34.355  31.284  32.975  0.00  0.00    +0.150 HD
BRANCH  33  37
ATOM     37  CA  ASN A   1      34.996  31.363  35.433  0.00  0.00    +0.154 C 
BRANCH  37  38
ATOM     38  N   ASN A   1      34.292  31.388  36.761  0.00  0.00    -0.238 NA
ATOM     39  H   ASN A   1      34.858  31.229  37.619  0.00  0.00    +0.142 HD
ENDBRANCH  37  38
BRANCH  37  40
ATOM     40  CB  ASN A   1      36.488  31.270  35.659  0.00  0.00    +0.111 C 
BRANCH  40  41
ATOM     41  CG  ASN A   1      36.898  32.107  36.715  0.00  0.00    +0.221 C 
ATOM     42  ND2 ASN A   1      37.243  31.524  37.883  0.00  0.00    -0.329 N 
ATOM     43 HD21 ASN A   1      37.472  32.112  38.710  0.00  0.00    +0.145 HD
ATOM     44 HD22 ASN A   1      37.280  30.487  37.956  0.00  0.00    +0.145 HD
ATOM     45  OD1 ASN A   1      36.830  33.321  36.545  0.00  0.00    -0.275 OA
ENDBRANCH  40  41
ENDBRANCH  37  40
ENDBRANCH  33  37
ENDBRANCH  32  35
BRANCH  32  46
ATOM     46  CB  ASP A   2      32.754  29.262  32.073  0.00  0.00    +0.143 C 
BRANCH  46  47
ATOM     47  CG  ASP A   2      32.342  28.087  31.240  0.00  0.00    +0.367 C 
ATOM     48  OD2 ASP A   2      32.203  26.975  31.824  0.00  0.00    -0.246 OA
ATOM     49  OD1 ASP A   2      32.183  28.281  29.986  0.00  0.00    -0.246 OA
ENDBRANCH  46  47
ENDBRANCH  32  46
ENDBRANCH  28  32
ENDBRANCH   1  29
BRANCH   1  50
ATOM     50  CB  ASN A   3      36.358  28.729  28.511  0.00  0.00    +0.114 C 
BRANCH  50  51
ATOM     51  CG  ASN A   3      35.921  27.394  27.945  0.00  0.00    +0.222 C 
ATOM     52  ND2 ASN A   3      34.631  27.117  27.991  0.00  0.00    -0.329 N 
ATOM     53 HD21 ASN A   3      33.965  27.806  28.396  0.00  0.00    +0.145 HD
ATOM     54 HD22 ASN A   3      34.280  26.210  27.622  0.00  0.00    +0.145 HD
ATOM     55  OD1 ASN A   3      36.734  26.627  27.484  0.00  0.00    -0.275 OA
ENDBRANCH  50  51
ENDBRANCH   1  50
TORSDOF 20
REMARK  Name = ../refined-set-2016/4eky/4eky_pocket.pdb
REMARK  279 active torsions:
REMARK  status: ('A' for Active; 'I' for Inactive)
REMARK    1  A    between atoms: _1  and  _3
REMARK    2  A    between atoms: _3  and  _4
REMARK    3  A    between atoms: _3  and  _6
REMARK    4  A    between atoms: _6  and  _7
REMARK    5  A    between atoms: _12  and  _13
REMARK    6  A    between atoms: _15  and  _17
REMARK    7  A    between atoms: _17  and  _18
REMARK    8  A    between atoms: _17  and  _20
REMARK    9  A    between atoms: _20  and  _21
REMARK   10  A    between atoms: _21  and  _22
REMARK   11  A    between atoms: _25  and  _27
REMARK   12  A    between atoms: _27  and  _28
REMARK   13  A    between atoms: _27  and  _30
REMARK   14  A    between atoms: _30  and  _31
REMARK   15  A    between atoms: _36  and  _37
REMARK   16  A    between atoms: _39  and  _41
REMARK   17  A    between atoms: _41  and  _42
REMARK   18  A    between atoms: _41  and  _44
REMARK   19  A    between atoms: _44  and  _45
REMARK   20  A    between atoms: _50  and  _52
REMARK   21  A    between atoms: _52  and  _53
REMARK   22  A    between atoms: _55  and  _57
REMARK   23  A    between atoms: _57  and  _58
REMARK   24  A    between atoms: _60  and  _62
REMARK   25  A    between atoms: _62  and  _63
REMARK   26  A    between atoms: _62  and  _65
REMARK   27  A    between atoms: _65  and  _66
REMARK   28  A    between atoms: _69  and  _71
REMARK   29  A    between atoms: _71  and  _72
REMARK   30  A    between atoms: _74  and  _76
REMARK   31  A    between atoms: _76  and  _77
REMARK   32  A    between atoms: _76  and  _79
REMARK   33  A    between atoms: _79  and  _80
REMARK   34  A    between atoms: _80  and  _81
REMARK   35  A    between atoms: _81  and  _82
REMARK   36  A    between atoms: _91  and  _93
REMARK   37  A    between atoms: _93  and  _94
REMARK   38  A    between atoms: _93  and  _96
REMARK   39  A    between atoms: _96  and  _97
REMARK   40  A    between atoms: _100  and  _102
REMARK   41  A    between atoms: _102  and  _103
REMARK   42  A    between atoms: _106  and  _108
REMARK   43  A    between atoms: _108  and  _109
REMARK   44  A    between atoms: _108  and  _111
REMARK   45  A    between atoms: _111  and  _112
REMARK   46  A    between atoms: _118  and  _120
REMARK   47  A    between atoms: _120  and  _121
REMARK   48  A    between atoms: _120  and  _123
REMARK   49  A    between atoms: _123  and  _124
REMARK   50  A    between atoms: _129  and  _131
REMARK   51  A    between atoms: _131  and  _132
REMARK   52  A    between atoms: _131  and  _134
REMARK   53  A    between atoms: _134  and  _135
REMARK   54  A    between atoms: _138  and  _140
REMARK   55  A    between atoms: _140  and  _141
REMARK   56  A    between atoms: _140  and  _143
REMARK   57  A    between atoms: _143  and  _144
REMARK   58  A    between atoms: _149  and  _151
REMARK   59  A    between atoms: _151  and  _152
REMARK   60  A    between atoms: _151  and  _154
REMARK   61  A    between atoms: _154  and  _155
REMARK   62  A    between atoms: _161  and  _163
REMARK   63  A    between atoms: _163  and  _164
REMARK   64  A    between atoms: _163  and  _166
REMARK   65  A    between atoms: _166  and  _167
REMARK   66  A    between atoms: _173  and  _175
REMARK   67  A    between atoms: _175  and  _176
REMARK   68  A    between atoms: _175  and  _178
REMARK   69  A    between atoms: _178  and  _179
REMARK   70  A    between atoms: _179  and  _180
REMARK   71  A    between atoms: _180  and  _181
REMARK   72  A    between atoms: _190  and  _192
REMARK   73  A    between atoms: _192  and  _193
REMARK   74  A    between atoms: _192  and  _195
REMARK   75  A    between atoms: _195  and  _196
REMARK   76  A    between atoms: _196  and  _197
REMARK   77  A    between atoms: _200  and  _202
REMARK   78  A    between atoms: _202  and  _203
REMARK   79  A    between atoms: _202  and  _205
REMARK   80  A    between atoms: _205  and  _206
REMARK   81  A    between atoms: _211  and  _213
REMARK   82  A    between atoms: _213  and  _214
REMARK   83  A    between atoms: _213  and  _216
REMARK   84  A    between atoms: _216  and  _217
REMARK   85  A    between atoms: _220  and  _222
REMARK   86  A    between atoms: _222  and  _223
REMARK   87  A    between atoms: _222  and  _225
REMARK   88  A    between atoms: _225  and  _226
REMARK   89  A    between atoms: _229  and  _231
REMARK   90  A    between atoms: _231  and  _232
REMARK   91  A    between atoms: _231  and  _234
REMARK   92  A    between atoms: _234  and  _235
REMARK   93  A    between atoms: _241  and  _242
REMARK   94  A    between atoms: _247  and  _249
REMARK   95  A    between atoms: _249  and  _250
REMARK   96  A    between atoms: _249  and  _252
REMARK   97  A    between atoms: _252  and  _253
REMARK   98  A    between atoms: _258  and  _259
REMARK   99  A    between atoms: _261  and  _263
REMARK  100  A    between atoms: _263  and  _264
REMARK  101  A    between atoms: _263  and  _266
REMARK  102  A    between atoms: _266  and  _267
REMARK  103  A    between atoms: _270  and  _272
REMARK  104  A    between atoms: _272  and  _273
REMARK  105  A    between atoms: _272  and  _275
REMARK  106  A    between atoms: _275  and  _276
REMARK  107  A    between atoms: _281  and  _283
REMARK  108  A    between atoms: _283  and  _284
REMARK  109  A    between atoms: _283  and  _286
REMARK  110  A    between atoms: _286  and  _287
REMARK  111  A    between atoms: _292  and  _294
REMARK  112  A    between atoms: _294  and  _295
REMARK  113  A    between atoms: _294  and  _297
REMARK  114  A    between atoms: _297  and  _298
REMARK  115  A    between atoms: _301  and  _303
REMARK  116  A    between atoms: _303  and  _304
REMARK  117  A    between atoms: _303  and  _306
REMARK  118  A    between atoms: _309  and  _311
REMARK  119  A    between atoms: _311  and  _312
REMARK  120  A    between atoms: _311  and  _314
REMARK  121  A    between atoms: _314  and  _315
REMARK  122  A    between atoms: _319  and  _320
REMARK  123  A    between atoms: _325  and  _327
REMARK  124  A    between atoms: _327  and  _328
REMARK  125  A    between atoms: _327  and  _330
REMARK  126  A    between atoms: _330  and  _331
REMARK  127  A    between atoms: _331  and  _332
REMARK  128  A    between atoms: _335  and  _337
REMARK  129  A    between atoms: _337  and  _338
REMARK  130  A    between atoms: _341  and  _343
REMARK  131  A    between atoms: _343  and  _344
REMARK  132  A    between atoms: _343  and  _346
REMARK  133  A    between atoms: _346  and  _347
REMARK  134  A    between atoms: _350  and  _352
REMARK  135  A    between atoms: _352  and  _353
REMARK  136  A    between atoms: _352  and  _355
REMARK  137  A    between atoms: _355  and  _356
REMARK  138  A    between atoms: _356  and  _357
REMARK  139  A    between atoms: _360  and  _362
REMARK  140  A    between atoms: _362  and  _363
REMARK  141  A    between atoms: _362  and  _365
REMARK  142  A    between atoms: _365  and  _366
REMARK  143  A    between atoms: _366  and  _367
REMARK  144  A    between atoms: _369  and  _371
REMARK  145  A    between atoms: _371  and  _372
REMARK  146  A    between atoms: _375  and  _377
REMARK  147  A    between atoms: _377  and  _378
REMARK  148  A    between atoms: _377  and  _380
REMARK  149  A    between atoms: _380  and  _381
REMARK  150  A    between atoms: _386  and  _388
REMARK  151  A    between atoms: _388  and  _389
REMARK  152  A    between atoms: _391  and  _393
REMARK  153  A    between atoms: _393  and  _394
REMARK  154  A    between atoms: _393  and  _396
REMARK  155  A    between atoms: _399  and  _401
REMARK  156  A    between atoms: _401  and  _402
REMARK  157  A    between atoms: _405  and  _407
REMARK  158  A    between atoms: _407  and  _408
REMARK  159  A    between atoms: _407  and  _410
REMARK  160  A    between atoms: _410  and  _411
REMARK  161  A    between atoms: _416  and  _418
REMARK  162  A    between atoms: _418  and  _419
REMARK  163  A    between atoms: _418  and  _421
REMARK  164  A    between atoms: _421  and  _422
REMARK  165  A    between atoms: _428  and  _430
REMARK  166  A    between atoms: _430  and  _431
REMARK  167  A    between atoms: _430  and  _433
REMARK  168  A    between atoms: _433  and  _434
REMARK  169  A    between atoms: _434  and  _435
REMARK  170  A    between atoms: _435  and  _436
REMARK  171  A    between atoms: _436  and  _437
REMARK  172  A    between atoms: _441  and  _443
REMARK  173  A    between atoms: _443  and  _444
REMARK  174  A    between atoms: _443  and  _446
REMARK  175  A    between atoms: _446  and  _447
REMARK  176  A    between atoms: _450  and  _452
REMARK  177  A    between atoms: _452  and  _453
REMARK  178  A    between atoms: _452  and  _455
REMARK  179  A    between atoms: _455  and  _456
REMARK  180  A    between atoms: _461  and  _463
REMARK  181  A    between atoms: _463  and  _464
REMARK  182  A    between atoms: _466  and  _468
REMARK  183  A    between atoms: _468  and  _469
REMARK  184  A    between atoms: _468  and  _471
REMARK  185  A    between atoms: _471  and  _472
REMARK  186  A    between atoms: _475  and  _477
REMARK  187  A    between atoms: _477  and  _478
REMARK  188  A    between atoms: _477  and  _480
REMARK  189  A    between atoms: _480  and  _481
REMARK  190  A    between atoms: _481  and  _482
REMARK  191  A    between atoms: _482  and  _483
REMARK  192  A    between atoms: _483  and  _484
REMARK  193  A    between atoms: _488  and  _490
REMARK  194  A    between atoms: _490  and  _491
REMARK  195  A    between atoms: _490  and  _493
REMARK  196  A    between atoms: _493  and  _494
REMARK  197  A    between atoms: _494  and  _495
REMARK  198  A    between atoms: _495  and  _496
REMARK  199  A    between atoms: _505  and  _507
REMARK  200  A    between atoms: _507  and  _508
REMARK  201  A    between atoms: _507  and  _510
REMARK  202  A    between atoms: _510  and  _511
REMARK  203  A    between atoms: _516  and  _518
REMARK  204  A    between atoms: _518  and  _519
REMARK  205  A    between atoms: _518  and  _521
REMARK  206  A    between atoms: _521  and  _522
REMARK  207  A    between atoms: _527  and  _528
REMARK  208  A    between atoms: _530  and  _532
REMARK  209  A    between atoms: _532  and  _533
REMARK  210  A    between atoms: _532  and  _535
REMARK  211  A    between atoms: _535  and  _536
REMARK  212  A    between atoms: _536  and  _537
REMARK  213  A    between atoms: _537  and  _538
REMARK  214  A    between atoms: _538  and  _539
REMARK  215  A    between atoms: _543  and  _545
REMARK  216  A    between atoms: _545  and  _546
REMARK  217  A    between atoms: _545  and  _548
REMARK  218  A    between atoms: _548  and  _549
REMARK  219  A    between atoms: _551  and  _553
REMARK  220  A    between atoms: _553  and  _554
REMARK  221  A    between atoms: _553  and  _556
REMARK  222  A    between atoms: _556  and  _557
REMARK  223  A    between atoms: _560  and  _562
REMARK  224  A    between atoms: _562  and  _563
REMARK  225  A    between atoms: _562  and  _565
REMARK  226  A    between atoms: _565  and  _566
REMARK  227  A    between atoms: _566  and  _567
REMARK  228  A    between atoms: _570  and  _572
REMARK  229  A    between atoms: _572  and  _573
REMARK  230  A    between atoms: _576  and  _578
REMARK  231  A    between atoms: _578  and  _579
REMARK  232  A    between atoms: _578  and  _581
REMARK  233  A    between atoms: _581  and  _582
REMARK  234  A    between atoms: _584  and  _586
REMARK  235  A    between atoms: _586  and  _587
REMARK  236  A    between atoms: _589  and  _591
REMARK  237  A    between atoms: _591  and  _592
REMARK  238  A    between atoms: _591  and  _594
REMARK  239  A    between atoms: _594  and  _595
REMARK  240  A    between atoms: _598  and  _600
REMARK  241  A    between atoms: _600  and  _601
REMARK  242  A    between atoms: _603  and  _605
REMARK  243  A    between atoms: _605  and  _606
REMARK  244  A    between atoms: _605  and  _608
REMARK  245  A    between atoms: _608  and  _609
REMARK  246  A    between atoms: _614  and  _616
REMARK  247  A    between atoms: _616  and  _617
REMARK  248  A    between atoms: _616  and  _619
REMARK  249  A    between atoms: _619  and  _620
REMARK  250  A    between atoms: _620  and  _621
REMARK  251  A    between atoms: _628  and  _629
REMARK  252  A    between atoms: _629  and  _645
REMARK  253  A    between atoms: _630  and  _632
REMARK  254  A    between atoms: _632  and  _633
REMARK  255  A    between atoms: _633  and  _634
REMARK  256  A    between atoms: _638  and  _640
REMARK  257  A    between atoms: _640  and  _641
REMARK  258  A    between atoms: _640  and  _648
REMARK  259  A    between atoms: _641  and  _642
REMARK  260  A    between atoms: _642  and  _643
REMARK  261  A    between atoms: _643  and  _644
REMARK  262  A    between atoms: _644  and  _645
REMARK  263  A    between atoms: _650  and  _652
REMARK  264  A    between atoms: _652  and  _653
REMARK  265  A    between atoms: _652  and  _655
REMARK  266  A    between atoms: _655  and  _656
REMARK  267  A    between atoms: _659  and  _661
REMARK  268  A    between atoms: _661  and  _662
REMARK  269  A    between atoms: _664  and  _666
REMARK  270  A    between atoms: _666  and  _667
REMARK  271  A    between atoms: _670  and  _672
REMARK  272  A    between atoms: _672  and  _673
REMARK  273  A    between atoms: _672  and  _675
REMARK  274  A    between atoms: _675  and  _676
REMARK  275  A    between atoms: _679  and  _681
REMARK  276  A    between atoms: _681  and  _682
REMARK  277  A    between atoms: _681  and  _684
REMARK  278  A    between atoms: _684  and  _685
REMARK  279  A    between atoms: _690  and  _691
REMARK                            x       y       z     vdW  Elec       q    Type
REMARK                         _______ _______ _______ _____ _____    ______ ____
ROOT
ATOM      1  NE  ARG A   1      39.272  25.941  40.275  0.00  0.00    -0.265 N 
ATOM      2  HE  ARG A   1      40.121  25.596  39.784  0.00  0.00    +0.259 HD
ATOM      3  CZ  ARG A   1      38.090  25.604  39.771  0.00  0.00    +0.342 C 
ATOM      4  NH2 ARG A   1      36.970  26.004  40.365  0.00  0.00    -0.292 N 
ATOM      5 HH21 ARG A   1      37.017  26.583  41.228  0.00  0.00    +0.255 HD
ATOM      6 HH22 ARG A   1      36.047  25.738  39.967  0.00  0.00    +0.255 HD
ATOM      7  NH1 ARG A   1      38.036  24.856  38.673  0.00  0.00    -0.292 N 
ATOM      8 HH11 ARG A   1      37.115  24.587  38.272  0.00  0.00    +0.255 HD
ATOM      9 HH12 ARG A   1      38.915  24.540  38.216  0.00  0.00    +0.255 HD
ENDROOT
BRANCH   1  10
ATOM     10  CD  ARG A   1      39.466  26.754  41.459  0.00  0.00    +0.174 C 
BRANCH  10  11
ATOM     11  CG  ARG A   1      40.850  27.363  41.514  0.00  0.00    +0.045 C 
BRANCH  11  12
ATOM     12  CB  ARG A   1      40.992  28.305  42.703  0.00  0.00    +0.029 C 
BRANCH  12  13
ATOM     13  CA  ARG A   1      40.937  27.681  44.095  0.00  0.00    +0.133 C 
BRANCH  13  14
ATOM     14  N   ARG A   1      41.281  28.666  45.115  0.00  0.00    -0.239 NA
ATOM     15  H   ARG A   1      41.691  29.578  44.828  0.00  0.00    +0.142 HD
ENDBRANCH  13  14
BRANCH  13  16
ATOM     16  C   ARG A   1      41.863  26.487  44.179  0.00  0.00    +0.224 C 
ATOM     17  O   ARG A   1      41.429  25.352  44.047  0.00  0.00    -0.287 OA
ENDBRANCH  13  16
ENDBRANCH  12  13
ENDBRANCH  11  12
ENDBRANCH  10  11
ENDBRANCH   1  10
TORSDOF 6
REMARK  Name = ../refined-set-2016/4eky/4eky_pocket.pdb
REMARK  279 active torsions:
REMARK  status: ('A' for Active; 'I' for Inactive)
REMARK    1  A    between atoms: _1  and  _3
REMARK    2  A    between atoms: _3  and  _4
REMARK    3  A    between atoms: _3  and  _6
REMARK    4  A    between atoms: _6  and  _7
REMARK    5  A    between atoms: _12  and  _13
REMARK    6  A    between atoms: _15  and  _17
REMARK    7  A    between atoms: _17  and  _18
REMARK    8  A    between atoms: _17  and  _20
REMARK    9  A    between atoms: _20  and  _21
REMARK   10  A    between atoms: _21  and  _22
REMARK   11  A    between atoms: _25  and  _27
REMARK   12  A    between atoms: _27  and  _28
REMARK   13  A    between atoms: _27  and  _30
REMARK   14  A    between atoms: _30  and  _31
REMARK   15  A    between atoms: _36  and  _37
REMARK   16  A    between atoms: _39  and  _41
REMARK   17  A    between atoms: _41  and  _42
REMARK   18  A    between atoms: _41  and  _44
REMARK   19  A    between atoms: _44  and  _45
REMARK   20  A    between atoms: _50  and  _52
REMARK   21  A    between atoms: _52  and  _53
REMARK   22  A    between atoms: _55  and  _57
REMARK   23  A    between atoms: _57  and  _58
REMARK   24  A    between atoms: _60  and  _62
REMARK   25  A    between atoms: _62  and  _63
REMARK   26  A    between atoms: _62  and  _65
REMARK   27  A    between atoms: _65  and  _66
REMARK   28  A    between atoms: _69  and  _71
REMARK   29  A    between atoms: _71  and  _72
REMARK   30  A    between atoms: _74  and  _76
REMARK   31  A    between atoms: _76  and  _77
REMARK   32  A    between atoms: _76  and  _79
REMARK   33  A    between atoms: _79  and  _80
REMARK   34  A    between atoms: _80  and  _81
REMARK   35  A    between atoms: _81  and  _82
REMARK   36  A    between atoms: _91  and  _93
REMARK   37  A    between atoms: _93  and  _94
REMARK   38  A    between atoms: _93  and  _96
REMARK   39  A    between atoms: _96  and  _97
REMARK   40  A    between atoms: _100  and  _102
REMARK   41  A    between atoms: _102  and  _103
REMARK   42  A    between atoms: _106  and  _108
REMARK   43  A    between atoms: _108  and  _109
REMARK   44  A    between atoms: _108  and  _111
REMARK   45  A    between atoms: _111  and  _112
REMARK   46  A    between atoms: _118  and  _120
REMARK   47  A    between atoms: _120  and  _121
REMARK   48  A    between atoms: _120  and  _123
REMARK   49  A    between atoms: _123  and  _124
REMARK   50  A    between atoms: _129  and  _131
REMARK   51  A    between atoms: _131  and  _132
REMARK   52  A    between atoms: _131  and  _134
REMARK   53  A    between atoms: _134  and  _135
REMARK   54  A    between atoms: _138  and  _140
REMARK   55  A    between atoms: _140  and  _141
REMARK   56  A    between atoms: _140  and  _143
REMARK   57  A    between atoms: _143  and  _144
REMARK   58  A    between atoms: _149  and  _151
REMARK   59  A    between atoms: _151  and  _152
REMARK   60  A    between atoms: _151  and  _154
REMARK   61  A    between atoms: _154  and  _155
REMARK   62  A    between atoms: _161  and  _163
REMARK   63  A    between atoms: _163  and  _164
REMARK   64  A    between atoms: _163  and  _166
REMARK   65  A    between atoms: _166  and  _167
REMARK   66  A    between atoms: _173  and  _175
REMARK   67  A    between atoms: _175  and  _176
REMARK   68  A    between atoms: _175  and  _178
REMARK   69  A    between atoms: _178  and  _179
REMARK   70  A    between atoms: _179  and  _180
REMARK   71  A    between atoms: _180  and  _181
REMARK   72  A    between atoms: _190  and  _192
REMARK   73  A    between atoms: _192  and  _193
REMARK   74  A    between atoms: _192  and  _195
REMARK   75  A    between atoms: _195  and  _196
REMARK   76  A    between atoms: _196  and  _197
REMARK   77  A    between atoms: _200  and  _202
REMARK   78  A    between atoms: _202  and  _203
REMARK   79  A    between atoms: _202  and  _205
REMARK   80  A    between atoms: _205  and  _206
REMARK   81  A    between atoms: _211  and  _213
REMARK   82  A    between atoms: _213  and  _214
REMARK   83  A    between atoms: _213  and  _216
REMARK   84  A    between atoms: _216  and  _217
REMARK   85  A    between atoms: _220  and  _222
REMARK   86  A    between atoms: _222  and  _223
REMARK   87  A    between atoms: _222  and  _225
REMARK   88  A    between atoms: _225  and  _226
REMARK   89  A    between atoms: _229  and  _231
REMARK   90  A    between atoms: _231  and  _232
REMARK   91  A    between atoms: _231  and  _234
REMARK   92  A    between atoms: _234  and  _235
REMARK   93  A    between atoms: _241  and  _242
REMARK   94  A    between atoms: _247  and  _249
REMARK   95  A    between atoms: _249  and  _250
REMARK   96  A    between atoms: _249  and  _252
REMARK   97  A    between atoms: _252  and  _253
REMARK   98  A    between atoms: _258  and  _259
REMARK   99  A    between atoms: _261  and  _263
REMARK  100  A    between atoms: _263  and  _264
REMARK  101  A    between atoms: _263  and  _266
REMARK  102  A    between atoms: _266  and  _267
REMARK  103  A    between atoms: _270  and  _272
REMARK  104  A    between atoms: _272  and  _273
REMARK  105  A    between atoms: _272  and  _275
REMARK  106  A    between atoms: _275  and  _276
REMARK  107  A    between atoms: _281  and  _283
REMARK  108  A    between atoms: _283  and  _284
REMARK  109  A    between atoms: _283  and  _286
REMARK  110  A    between atoms: _286  and  _287
REMARK  111  A    between atoms: _292  and  _294
REMARK  112  A    between atoms: _294  and  _295
REMARK  113  A    between atoms: _294  and  _297
REMARK  114  A    between atoms: _297  and  _298
REMARK  115  A    between atoms: _301  and  _303
REMARK  116  A    between atoms: _303  and  _304
REMARK  117  A    between atoms: _303  and  _306
REMARK  118  A    between atoms: _309  and  _311
REMARK  119  A    between atoms: _311  and  _312
REMARK  120  A    between atoms: _311  and  _314
REMARK  121  A    between atoms: _314  and  _315
REMARK  122  A    between atoms: _319  and  _320
REMARK  123  A    between atoms: _325  and  _327
REMARK  124  A    between atoms: _327  and  _328
REMARK  125  A    between atoms: _327  and  _330
REMARK  126  A    between atoms: _330  and  _331
REMARK  127  A    between atoms: _331  and  _332
REMARK  128  A    between atoms: _335  and  _337
REMARK  129  A    between atoms: _337  and  _338
REMARK  130  A    between atoms: _341  and  _343
REMARK  131  A    between atoms: _343  and  _344
REMARK  132  A    between atoms: _343  and  _346
REMARK  133  A    between atoms: _346  and  _347
REMARK  134  A    between atoms: _350  and  _352
REMARK  135  A    between atoms: _352  and  _353
REMARK  136  A    between atoms: _352  and  _355
REMARK  137  A    between atoms: _355  and  _356
REMARK  138  A    between atoms: _356  and  _357
REMARK  139  A    between atoms: _360  and  _362
REMARK  140  A    between atoms: _362  and  _363
REMARK  141  A    between atoms: _362  and  _365
REMARK  142  A    between atoms: _365  and  _366
REMARK  143  A    between atoms: _366  and  _367
REMARK  144  A    between atoms: _369  and  _371
REMARK  145  A    between atoms: _371  and  _372
REMARK  146  A    between atoms: _375  and  _377
REMARK  147  A    between atoms: _377  and  _378
REMARK  148  A    between atoms: _377  and  _380
REMARK  149  A    between atoms: _380  and  _381
REMARK  150  A    between atoms: _386  and  _388
REMARK  151  A    between atoms: _388  and  _389
REMARK  152  A    between atoms: _391  and  _393
REMARK  153  A    between atoms: _393  and  _394
REMARK  154  A    between atoms: _393  and  _396
REMARK  155  A    between atoms: _399  and  _401
REMARK  156  A    between atoms: _401  and  _402
REMARK  157  A    between atoms: _405  and  _407
REMARK  158  A    between atoms: _407  and  _408
REMARK  159  A    between atoms: _407  and  _410
REMARK  160  A    between atoms: _410  and  _411
REMARK  161  A    between atoms: _416  and  _418
REMARK  162  A    between atoms: _418  and  _419
REMARK  163  A    between atoms: _418  and  _421
REMARK  164  A    between atoms: _421  and  _422
REMARK  165  A    between atoms: _428  and  _430
REMARK  166  A    between atoms: _430  and  _431
REMARK  167  A    between atoms: _430  and  _433
REMARK  168  A    between atoms: _433  and  _434
REMARK  169  A    between atoms: _434  and  _435
REMARK  170  A    between atoms: _435  and  _436
REMARK  171  A    between atoms: _436  and  _437
REMARK  172  A    between atoms: _441  and  _443
REMARK  173  A    between atoms: _443  and  _444
REMARK  174  A    between atoms: _443  and  _446
REMARK  175  A    between atoms: _446  and  _447
REMARK  176  A    between atoms: _450  and  _452
REMARK  177  A    between atoms: _452  and  _453
REMARK  178  A    between atoms: _452  and  _455
REMARK  179  A    between atoms: _455  and  _456
REMARK  180  A    between atoms: _461  and  _463
REMARK  181  A    between atoms: _463  and  _464
REMARK  182  A    between atoms: _466  and  _468
REMARK  183  A    between atoms: _468  and  _469
REMARK  184  A    between atoms: _468  and  _471
REMARK  185  A    between atoms: _471  and  _472
REMARK  186  A    between atoms: _475  and  _477
REMARK  187  A    between atoms: _477  and  _478
REMARK  188  A    between atoms: _477  and  _480
REMARK  189  A    between atoms: _480  and  _481
REMARK  190  A    between atoms: _481  and  _482
REMARK  191  A    between atoms: _482  and  _483
REMARK  192  A    between atoms: _483  and  _484
REMARK  193  A    between atoms: _488  and  _490
REMARK  194  A    between atoms: _490  and  _491
REMARK  195  A    between atoms: _490  and  _493
REMARK  196  A    between atoms: _493  and  _494
REMARK  197  A    between atoms: _494  and  _495
REMARK  198  A    between atoms: _495  and  _496
REMARK  199  A    between atoms: _505  and  _507
REMARK  200  A    between atoms: _507  and  _508
REMARK  201  A    between atoms: _507  and  _510
REMARK  202  A    between atoms: _510  and  _511
REMARK  203  A    between atoms: _516  and  _518
REMARK  204  A    between atoms: _518  and  _519
REMARK  205  A    between atoms: _518  and  _521
REMARK  206  A    between atoms: _521  and  _522
REMARK  207  A    between atoms: _527  and  _528
REMARK  208  A    between atoms: _530  and  _532
REMARK  209  A    between atoms: _532  and  _533
REMARK  210  A    between atoms: _532  and  _535
REMARK  211  A    between atoms: _535  and  _536
REMARK  212  A    between atoms: _536  and  _537
REMARK  213  A    between atoms: _537  and  _538
REMARK  214  A    between atoms: _538  and  _539
REMARK  215  A    between atoms: _543  and  _545
REMARK  216  A    between atoms: _545  and  _546
REMARK  217  A    between atoms: _545  and  _548
REMARK  218  A    between atoms: _548  and  _549
REMARK  219  A    between atoms: _551  and  _553
REMARK  220  A    between atoms: _553  and  _554
REMARK  221  A    between atoms: _553  and  _556
REMARK  222  A    between atoms: _556  and  _557
REMARK  223  A    between atoms: _560  and  _562
REMARK  224  A    between atoms: _562  and  _563
REMARK  225  A    between atoms: _562  and  _565
REMARK  226  A    between atoms: _565  and  _566
REMARK  227  A    between atoms: _566  and  _567
REMARK  228  A    between atoms: _570  and  _572
REMARK  229  A    between atoms: _572  and  _573
REMARK  230  A    between atoms: _576  and  _578
REMARK  231  A    between atoms: _578  and  _579
REMARK  232  A    between atoms: _578  and  _581
REMARK  233  A    between atoms: _581  and  _582
REMARK  234  A    between atoms: _584  and  _586
REMARK  235  A    between atoms: _586  and  _587
REMARK  236  A    between atoms: _589  and  _591
REMARK  237  A    between atoms: _591  and  _592
REMARK  238  A    between atoms: _591  and  _594
REMARK  239  A    between atoms: _594  and  _595
REMARK  240  A    between atoms: _598  and  _600
REMARK  241  A    between atoms: _600  and  _601
REMARK  242  A    between atoms: _603  and  _605
REMARK  243  A    between atoms: _605  and  _606
REMARK  244  A    between atoms: _605  and  _608
REMARK  245  A    between atoms: _608  and  _609
REMARK  246  A    between atoms: _614  and  _616
REMARK  247  A    between atoms: _616  and  _617
REMARK  248  A    between atoms: _616  and  _619
REMARK  249  A    between atoms: _619  and  _620
REMARK  250  A    between atoms: _620  and  _621
REMARK  251  A    between atoms: _628  and  _629
REMARK  252  A    between atoms: _629  and  _645
REMARK  253  A    between atoms: _630  and  _632
REMARK  254  A    between atoms: _632  and  _633
REMARK  255  A    between atoms: _633  and  _634
REMARK  256  A    between atoms: _638  and  _640
REMARK  257  A    between atoms: _640  and  _641
REMARK  258  A    between atoms: _640  and  _648
REMARK  259  A    between atoms: _641  and  _642
REMARK  260  A    between atoms: _642  and  _643
REMARK  261  A    between atoms: _643  and  _644
REMARK  262  A    between atoms: _644  and  _645
REMARK  263  A    between atoms: _650  and  _652
REMARK  264  A    between atoms: _652  and  _653
REMARK  265  A    between atoms: _652  and  _655
REMARK  266  A    between atoms: _655  and  _656
REMARK  267  A    between atoms: _659  and  _661
REMARK  268  A    between atoms: _661  and  _662
REMARK  269  A    between atoms: _664  and  _666
REMARK  270  A    between atoms: _666  and  _667
REMARK  271  A    between atoms: _670  and  _672
REMARK  272  A    between atoms: _672  and  _673
REMARK  273  A    between atoms: _672  and  _675
REMARK  274  A    between atoms: _675  and  _676
REMARK  275  A    between atoms: _679  and  _681
REMARK  276  A    between atoms: _681  and  _682
REMARK  277  A    between atoms: _681  and  _684
REMARK  278  A    between atoms: _684  and  _685
REMARK  279  A    between atoms: _690  and  _691
REMARK                            x       y       z     vdW  Elec       q    Type
REMARK                         _______ _______ _______ _____ _____    ______ ____
ROOT
ATOM      1  CA  GLU A   1      41.368  21.361  44.111  0.00  0.00    +0.134 C 
ENDROOT
BRANCH   1   2
ATOM      2  N   GLU A   1      40.933  22.484  44.921  0.00  0.00    -0.239 NA
ATOM      3  H   GLU A   1      41.376  23.414  44.779  0.00  0.00    +0.142 HD
ENDBRANCH   1   2
BRANCH   1   4
ATOM      4  C   GLU A   1      42.022  20.295  44.930  0.00  0.00    +0.224 C 
ATOM      5  O   GLU A   1      41.799  19.119  44.698  0.00  0.00    -0.287 OA
ENDBRANCH   1   4
BRANCH   1   6
ATOM      6  CB  GLU A   1      42.314  21.820  42.992  0.00  0.00    +0.037 C 
BRANCH   6   7
ATOM      7  CG  GLU A   1      41.584  22.655  41.927  0.00  0.00    +0.116 C 
BRANCH   7   8
ATOM      8  CD  GLU A   1      42.443  23.153  40.827  0.00  0.00    +0.365 C 
ATOM      9  OE2 GLU A   1      43.667  23.031  40.901  0.00  0.00    -0.246 OA
ATOM     10  OE1 GLU A   1      41.891  23.684  39.846  0.00  0.00    -0.246 OA
ENDBRANCH   7   8
ENDBRANCH   6   7
ENDBRANCH   1   6
TORSDOF 5
REMARK  Name = ../refined-set-2016/4eky/4eky_pocket.pdb
REMARK  279 active torsions:
REMARK  status: ('A' for Active; 'I' for Inactive)
REMARK    1  A    between atoms: _1  and  _3
REMARK    2  A    between atoms: _3  and  _4
REMARK    3  A    between atoms: _3  and  _6
REMARK    4  A    between atoms: _6  and  _7
REMARK    5  A    between atoms: _12  and  _13
REMARK    6  A    between atoms: _15  and  _17
REMARK    7  A    between atoms: _17  and  _18
REMARK    8  A    between atoms: _17  and  _20
REMARK    9  A    between atoms: _20  and  _21
REMARK   10  A    between atoms: _21  and  _22
REMARK   11  A    between atoms: _25  and  _27
REMARK   12  A    between atoms: _27  and  _28
REMARK   13  A    between atoms: _27  and  _30
REMARK   14  A    between atoms: _30  and  _31
REMARK   15  A    between atoms: _36  and  _37
REMARK   16  A    between atoms: _39  and  _41
REMARK   17  A    between atoms: _41  and  _42
REMARK   18  A    between atoms: _41  and  _44
REMARK   19  A    between atoms: _44  and  _45
REMARK   20  A    between atoms: _50  and  _52
REMARK   21  A    between atoms: _52  and  _53
REMARK   22  A    between atoms: _55  and  _57
REMARK   23  A    between atoms: _57  and  _58
REMARK   24  A    between atoms: _60  and  _62
REMARK   25  A    between atoms: _62  and  _63
REMARK   26  A    between atoms: _62  and  _65
REMARK   27  A    between atoms: _65  and  _66
REMARK   28  A    between atoms: _69  and  _71
REMARK   29  A    between atoms: _71  and  _72
REMARK   30  A    between atoms: _74  and  _76
REMARK   31  A    between atoms: _76  and  _77
REMARK   32  A    between atoms: _76  and  _79
REMARK   33  A    between atoms: _79  and  _80
REMARK   34  A    between atoms: _80  and  _81
REMARK   35  A    between atoms: _81  and  _82
REMARK   36  A    between atoms: _91  and  _93
REMARK   37  A    between atoms: _93  and  _94
REMARK   38  A    between atoms: _93  and  _96
REMARK   39  A    between atoms: _96  and  _97
REMARK   40  A    between atoms: _100  and  _102
REMARK   41  A    between atoms: _102  and  _103
REMARK   42  A    between atoms: _106  and  _108
REMARK   43  A    between atoms: _108  and  _109
REMARK   44  A    between atoms: _108  and  _111
REMARK   45  A    between atoms: _111  and  _112
REMARK   46  A    between atoms: _118  and  _120
REMARK   47  A    between atoms: _120  and  _121
REMARK   48  A    between atoms: _120  and  _123
REMARK   49  A    between atoms: _123  and  _124
REMARK   50  A    between atoms: _129  and  _131
REMARK   51  A    between atoms: _131  and  _132
REMARK   52  A    between atoms: _131  and  _134
REMARK   53  A    between atoms: _134  and  _135
REMARK   54  A    between atoms: _138  and  _140
REMARK   55  A    between atoms: _140  and  _141
REMARK   56  A    between atoms: _140  and  _143
REMARK   57  A    between atoms: _143  and  _144
REMARK   58  A    between atoms: _149  and  _151
REMARK   59  A    between atoms: _151  and  _152
REMARK   60  A    between atoms: _151  and  _154
REMARK   61  A    between atoms: _154  and  _155
REMARK   62  A    between atoms: _161  and  _163
REMARK   63  A    between atoms: _163  and  _164
REMARK   64  A    between atoms: _163  and  _166
REMARK   65  A    between atoms: _166  and  _167
REMARK   66  A    between atoms: _173  and  _175
REMARK   67  A    between atoms: _175  and  _176
REMARK   68  A    between atoms: _175  and  _178
REMARK   69  A    between atoms: _178  and  _179
REMARK   70  A    between atoms: _179  and  _180
REMARK   71  A    between atoms: _180  and  _181
REMARK   72  A    between atoms: _190  and  _192
REMARK   73  A    between atoms: _192  and  _193
REMARK   74  A    between atoms: _192  and  _195
REMARK   75  A    between atoms: _195  and  _196
REMARK   76  A    between atoms: _196  and  _197
REMARK   77  A    between atoms: _200  and  _202
REMARK   78  A    between atoms: _202  and  _203
REMARK   79  A    between atoms: _202  and  _205
REMARK   80  A    between atoms: _205  and  _206
REMARK   81  A    between atoms: _211  and  _213
REMARK   82  A    between atoms: _213  and  _214
REMARK   83  A    between atoms: _213  and  _216
REMARK   84  A    between atoms: _216  and  _217
REMARK   85  A    between atoms: _220  and  _222
REMARK   86  A    between atoms: _222  and  _223
REMARK   87  A    between atoms: _222  and  _225
REMARK   88  A    between atoms: _225  and  _226
REMARK   89  A    between atoms: _229  and  _231
REMARK   90  A    between atoms: _231  and  _232
REMARK   91  A    between atoms: _231  and  _234
REMARK   92  A    between atoms: _234  and  _235
REMARK   93  A    between atoms: _241  and  _242
REMARK   94  A    between atoms: _247  and  _249
REMARK   95  A    between atoms: _249  and  _250
REMARK   96  A    between atoms: _249  and  _252
REMARK   97  A    between atoms: _252  and  _253
REMARK   98  A    between atoms: _258  and  _259
REMARK   99  A    between atoms: _261  and  _263
REMARK  100  A    between atoms: _263  and  _264
REMARK  101  A    between atoms: _263  and  _266
REMARK  102  A    between atoms: _266  and  _267
REMARK  103  A    between atoms: _270  and  _272
REMARK  104  A    between atoms: _272  and  _273
REMARK  105  A    between atoms: _272  and  _275
REMARK  106  A    between atoms: _275  and  _276
REMARK  107  A    between atoms: _281  and  _283
REMARK  108  A    between atoms: _283  and  _284
REMARK  109  A    between atoms: _283  and  _286
REMARK  110  A    between atoms: _286  and  _287
REMARK  111  A    between atoms: _292  and  _294
REMARK  112  A    between atoms: _294  and  _295
REMARK  113  A    between atoms: _294  and  _297
REMARK  114  A    between atoms: _297  and  _298
REMARK  115  A    between atoms: _301  and  _303
REMARK  116  A    between atoms: _303  and  _304
REMARK  117  A    between atoms: _303  and  _306
REMARK  118  A    between atoms: _309  and  _311
REMARK  119  A    between atoms: _311  and  _312
REMARK  120  A    between atoms: _311  and  _314
REMARK  121  A    between atoms: _314  and  _315
REMARK  122  A    between atoms: _319  and  _320
REMARK  123  A    between atoms: _325  and  _327
REMARK  124  A    between atoms: _327  and  _328
REMARK  125  A    between atoms: _327  and  _330
REMARK  126  A    between atoms: _330  and  _331
REMARK  127  A    between atoms: _331  and  _332
REMARK  128  A    between atoms: _335  and  _337
REMARK  129  A    between atoms: _337  and  _338
REMARK  130  A    between atoms: _341  and  _343
REMARK  131  A    between atoms: _343  and  _344
REMARK  132  A    between atoms: _343  and  _346
REMARK  133  A    between atoms: _346  and  _347
REMARK  134  A    between atoms: _350  and  _352
REMARK  135  A    between atoms: _352  and  _353
REMARK  136  A    between atoms: _352  and  _355
REMARK  137  A    between atoms: _355  and  _356
REMARK  138  A    between atoms: _356  and  _357
REMARK  139  A    between atoms: _360  and  _362
REMARK  140  A    between atoms: _362  and  _363
REMARK  141  A    between atoms: _362  and  _365
REMARK  142  A    between atoms: _365  and  _366
REMARK  143  A    between atoms: _366  and  _367
REMARK  144  A    between atoms: _369  and  _371
REMARK  145  A    between atoms: _371  and  _372
REMARK  146  A    between atoms: _375  and  _377
REMARK  147  A    between atoms: _377  and  _378
REMARK  148  A    between atoms: _377  and  _380
REMARK  149  A    between atoms: _380  and  _381
REMARK  150  A    between atoms: _386  and  _388
REMARK  151  A    between atoms: _388  and  _389
REMARK  152  A    between atoms: _391  and  _393
REMARK  153  A    between atoms: _393  and  _394
REMARK  154  A    between atoms: _393  and  _396
REMARK  155  A    between atoms: _399  and  _401
REMARK  156  A    between atoms: _401  and  _402
REMARK  157  A    between atoms: _405  and  _407
REMARK  158  A    between atoms: _407  and  _408
REMARK  159  A    between atoms: _407  and  _410
REMARK  160  A    between atoms: _410  and  _411
REMARK  161  A    between atoms: _416  and  _418
REMARK  162  A    between atoms: _418  and  _419
REMARK  163  A    between atoms: _418  and  _421
REMARK  164  A    between atoms: _421  and  _422
REMARK  165  A    between atoms: _428  and  _430
REMARK  166  A    between atoms: _430  and  _431
REMARK  167  A    between atoms: _430  and  _433
REMARK  168  A    between atoms: _433  and  _434
REMARK  169  A    between atoms: _434  and  _435
REMARK  170  A    between atoms: _435  and  _436
REMARK  171  A    between atoms: _436  and  _437
REMARK  172  A    between atoms: _441  and  _443
REMARK  173  A    between atoms: _443  and  _444
REMARK  174  A    between atoms: _443  and  _446
REMARK  175  A    between atoms: _446  and  _447
REMARK  176  A    between atoms: _450  and  _452
REMARK  177  A    between atoms: _452  and  _453
REMARK  178  A    between atoms: _452  and  _455
REMARK  179  A    between atoms: _455  and  _456
REMARK  180  A    between atoms: _461  and  _463
REMARK  181  A    between atoms: _463  and  _464
REMARK  182  A    between atoms: _466  and  _468
REMARK  183  A    between atoms: _468  and  _469
REMARK  184  A    between atoms: _468  and  _471
REMARK  185  A    between atoms: _471  and  _472
REMARK  186  A    between atoms: _475  and  _477
REMARK  187  A    between atoms: _477  and  _478
REMARK  188  A    between atoms: _477  and  _480
REMARK  189  A    between atoms: _480  and  _481
REMARK  190  A    between atoms: _481  and  _482
REMARK  191  A    between atoms: _482  and  _483
REMARK  192  A    between atoms: _483  and  _484
REMARK  193  A    between atoms: _488  and  _490
REMARK  194  A    between atoms: _490  and  _491
REMARK  195  A    between atoms: _490  and  _493
REMARK  196  A    between atoms: _493  and  _494
REMARK  197  A    between atoms: _494  and  _495
REMARK  198  A    between atoms: _495  and  _496
REMARK  199  A    between atoms: _505  and  _507
REMARK  200  A    between atoms: _507  and  _508
REMARK  201  A    between atoms: _507  and  _510
REMARK  202  A    between atoms: _510  and  _511
REMARK  203  A    between atoms: _516  and  _518
REMARK  204  A    between atoms: _518  and  _519
REMARK  205  A    between atoms: _518  and  _521
REMARK  206  A    between atoms: _521  and  _522
REMARK  207  A    between atoms: _527  and  _528
REMARK  208  A    between atoms: _530  and  _532
REMARK  209  A    between atoms: _532  and  _533
REMARK  210  A    between atoms: _532  and  _535
REMARK  211  A    between atoms: _535  and  _536
REMARK  212  A    between atoms: _536  and  _537
REMARK  213  A    between atoms: _537  and  _538
REMARK  214  A    between atoms: _538  and  _539
REMARK  215  A    between atoms: _543  and  _545
REMARK  216  A    between atoms: _545  and  _546
REMARK  217  A    between atoms: _545  and  _548
REMARK  218  A    between atoms: _548  and  _549
REMARK  219  A    between atoms: _551  and  _553
REMARK  220  A    between atoms: _553  and  _554
REMARK  221  A    between atoms: _553  and  _556
REMARK  222  A    between atoms: _556  and  _557
REMARK  223  A    between atoms: _560  and  _562
REMARK  224  A    between atoms: _562  and  _563
REMARK  225  A    between atoms: _562  and  _565
REMARK  226  A    between atoms: _565  and  _566
REMARK  227  A    between atoms: _566  and  _567
REMARK  228  A    between atoms: _570  and  _572
REMARK  229  A    between atoms: _572  and  _573
REMARK  230  A    between atoms: _576  and  _578
REMARK  231  A    between atoms: _578  and  _579
REMARK  232  A    between atoms: _578  and  _581
REMARK  233  A    between atoms: _581  and  _582
REMARK  234  A    between atoms: _584  and  _586
REMARK  235  A    between atoms: _586  and  _587
REMARK  236  A    between atoms: _589  and  _591
REMARK  237  A    between atoms: _591  and  _592
REMARK  238  A    between atoms: _591  and  _594
REMARK  239  A    between atoms: _594  and  _595
REMARK  240  A    between atoms: _598  and  _600
REMARK  241  A    between atoms: _600  and  _601
REMARK  242  A    between atoms: _603  and  _605
REMARK  243  A    between atoms: _605  and  _606
REMARK  244  A    between atoms: _605  and  _608
REMARK  245  A    between atoms: _608  and  _609
REMARK  246  A    between atoms: _614  and  _616
REMARK  247  A    between atoms: _616  and  _617
REMARK  248  A    between atoms: _616  and  _619
REMARK  249  A    between atoms: _619  and  _620
REMARK  250  A    between atoms: _620  and  _621
REMARK  251  A    between atoms: _628  and  _629
REMARK  252  A    between atoms: _629  and  _645
REMARK  253  A    between atoms: _630  and  _632
REMARK  254  A    between atoms: _632  and  _633
REMARK  255  A    between atoms: _633  and  _634
REMARK  256  A    between atoms: _638  and  _640
REMARK  257  A    between atoms: _640  and  _641
REMARK  258  A    between atoms: _640  and  _648
REMARK  259  A    between atoms: _641  and  _642
REMARK  260  A    between atoms: _642  and  _643
REMARK  261  A    between atoms: _643  and  _644
REMARK  262  A    between atoms: _644  and  _645
REMARK  263  A    between atoms: _650  and  _652
REMARK  264  A    between atoms: _652  and  _653
REMARK  265  A    between atoms: _652  and  _655
REMARK  266  A    between atoms: _655  and  _656
REMARK  267  A    between atoms: _659  and  _661
REMARK  268  A    between atoms: _661  and  _662
REMARK  269  A    between atoms: _664  and  _666
REMARK  270  A    between atoms: _666  and  _667
REMARK  271  A    between atoms: _670  and  _672
REMARK  272  A    between atoms: _672  and  _673
REMARK  273  A    between atoms: _672  and  _675
REMARK  274  A    between atoms: _675  and  _676
REMARK  275  A    between atoms: _679  and  _681
REMARK  276  A    between atoms: _681  and  _682
REMARK  277  A    between atoms: _681  and  _684
REMARK  278  A    between atoms: _684  and  _685
REMARK  279  A    between atoms: _690  and  _691
REMARK                            x       y       z     vdW  Elec       q    Type
REMARK                         _______ _______ _______ _____ _____    ______ ____
ROOT
ATOM      1  CA  THR A   3      43.035  19.240  35.049  0.00  0.00    +0.176 C 
ENDROOT
BRANCH   1   4
ATOM      2  C   ASP A   2      41.101  18.186  34.075  0.00  0.00    +0.241 C 
ATOM      3  O   ASP A   2      41.246  17.221  34.786  0.00  0.00    -0.273 OA
ATOM      4  N   THR A   3      41.858  19.271  34.196  0.00  0.00    -0.295 N 
ATOM      5  H   THR A   3      41.609  20.140  33.682  0.00  0.00    +0.150 HD
BRANCH   2   6
ATOM      6  CA  ASP A   2      40.015  18.158  33.005  0.00  0.00    +0.160 C 
BRANCH   6   9
ATOM      7  C   ASN A   1      38.181  17.139  34.362  0.00  0.00    +0.239 C 
ATOM      8  O   ASN A   1      38.056  18.096  35.181  0.00  0.00    -0.274 OA
ATOM      9  N   ASP A   2      39.012  17.136  33.312  0.00  0.00    -0.297 N 
ATOM     10  H   ASP A   2      38.938  16.334  32.654  0.00  0.00    +0.150 HD
BRANCH   7  11
ATOM     11  CA  ASN A   1      37.409  15.829  34.542  0.00  0.00    +0.154 C 
BRANCH  11  12
ATOM     12  N   ASN A   1      38.241  14.918  35.325  0.00  0.00    -0.238 NA
ATOM     13  H   ASN A   1      38.085  14.838  36.350  0.00  0.00    +0.142 HD
ENDBRANCH  11  12
BRANCH  11  14
ATOM     14  CB  ASN A   1      36.039  16.068  35.206  0.00  0.00    +0.111 C 
BRANCH  14  15
ATOM     15  CG  ASN A   1      35.024  16.737  34.255  0.00  0.00    +0.221 C 
ATOM     16  ND2 ASN A   1      34.074  17.455  34.816  0.00  0.00    -0.329 N 
ATOM     17 HD21 ASN A   1      34.049  17.568  35.850  0.00  0.00    +0.145 HD
ATOM     18 HD22 ASN A   1      33.348  17.909  34.226  0.00  0.00    +0.145 HD
ATOM     19  OD1 ASN A   1      35.096  16.572  33.023  0.00  0.00    -0.275 OA
ENDBRANCH  14  15
ENDBRANCH  11  14
ENDBRANCH   7  11
ENDBRANCH   6   9
BRANCH   6  20
ATOM     20  CB  ASP A   2      39.455  19.544  32.645  0.00  0.00    +0.143 C 
BRANCH  20  21
ATOM     21  CG  ASP A   2      40.266  20.160  31.508  0.00  0.00    +0.367 C 
ATOM     22  OD2 ASP A   2      41.515  20.235  31.718  0.00  0.00    -0.246 OA
ATOM     23  OD1 ASP A   2      39.728  20.431  30.378  0.00  0.00    -0.246 OA
ENDBRANCH  20  21
ENDBRANCH   6  20
ENDBRANCH   2   6
ENDBRANCH   1   4
BRANCH   1  24
ATOM     24  C   THR A   3      42.664  19.749  36.442  0.00  0.00    +0.243 C 
ATOM     25  O   THR A   3      43.547  19.943  37.311  0.00  0.00    -0.273 OA
ATOM     26  N   HIS A   4      41.374  19.996  36.670  0.00  0.00    -0.297 N 
ATOM     27  H   HIS A   4      40.649  19.848  35.939  0.00  0.00    +0.150 HD
BRANCH  26  28
ATOM     28  CA  HIS A   4      41.035  20.487  38.005  0.00  0.00    +0.155 C 
BRANCH  28  29
ATOM     29  C   HIS A   4      41.482  19.559  39.131  0.00  0.00    +0.244 C 
ATOM     30  O   HIS A   4      41.958  20.041  40.162  0.00  0.00    -0.273 OA
ATOM     31  N   PRO A   5      41.281  18.243  38.963  0.00  0.00    -0.273 N 
ATOM     32  CA  PRO A   5      41.758  17.330  40.003  0.00  0.00    +0.140 C 
ATOM     33  CB  PRO A   5      40.670  16.268  40.082  0.00  0.00    +0.030 C 
ATOM     34  CG  PRO A   5      40.061  16.254  38.730  0.00  0.00    +0.024 C 
ATOM     35  CD  PRO A   5      40.408  17.537  38.003  0.00  0.00    +0.094 C 
BRANCH  32  36
ATOM     36  C   PRO A   5      43.048  16.663  39.619  0.00  0.00    +0.227 C 
ATOM     37  O   PRO A   5      43.252  15.546  40.022  0.00  0.00    -0.286 OA
ENDBRANCH  32  36
ENDBRANCH  28  29
BRANCH  28  38
ATOM     38  CB  HIS A   4      39.559  20.930  38.149  0.00  0.00    +0.076 C 
BRANCH  38  39
ATOM     39  CG  HIS A   4      39.147  21.932  37.119  0.00  0.00    +0.082 A 
ATOM     40  ND1 HIS A   4      37.857  22.011  36.636  0.00  0.00    -0.227 NA
ATOM     41  CE1 HIS A   4      37.790  22.971  35.727  0.00  0.00    +0.199 A 
ATOM     42  NE2 HIS A   4      39.005  23.469  35.548  0.00  0.00    -0.221 NA
ATOM     43  CD2 HIS A   4      39.875  22.828  36.400  0.00  0.00    +0.115 A 
ENDBRANCH  38  39
ENDBRANCH  28  38
ENDBRANCH  26  28
ENDBRANCH   1  24
BRANCH   1  44
ATOM     44  CB  THR A   3      44.227  20.113  34.469  0.00  0.00    +0.137 C 
ATOM     45  CG2 THR A   3      44.599  19.707  33.036  0.00  0.00    +0.034 C 
BRANCH  44  46
ATOM     46  OG1 THR A   3      43.864  21.485  34.474  0.00  0.00    -0.382 OA
ATOM     47  HG1 THR A   3      43.670  21.770  35.402  0.00  0.00    +0.210 HD
ENDBRANCH  44  46
ENDBRANCH   1  44
TORSDOF 17
REMARK  Name = ../refined-set-2016/4eky/4eky_pocket.pdb
REMARK  279 active torsions:
REMARK  status: ('A' for Active; 'I' for Inactive)
REMARK    1  A    between atoms: _1  and  _3
REMARK    2  A    between atoms: _3  and  _4
REMARK    3  A    between atoms: _3  and  _6
REMARK    4  A    between atoms: _6  and  _7
REMARK    5  A    between atoms: _12  and  _13
REMARK    6  A    between atoms: _15  and  _17
REMARK    7  A    between atoms: _17  and  _18
REMARK    8  A    between atoms: _17  and  _20
REMARK    9  A    between atoms: _20  and  _21
REMARK   10  A    between atoms: _21  and  _22
REMARK   11  A    between atoms: _25  and  _27
REMARK   12  A    between atoms: _27  and  _28
REMARK   13  A    between atoms: _27  and  _30
REMARK   14  A    between atoms: _30  and  _31
REMARK   15  A    between atoms: _36  and  _37
REMARK   16  A    between atoms: _39  and  _41
REMARK   17  A    between atoms: _41  and  _42
REMARK   18  A    between atoms: _41  and  _44
REMARK   19  A    between atoms: _44  and  _45
REMARK   20  A    between atoms: _50  and  _52
REMARK   21  A    between atoms: _52  and  _53
REMARK   22  A    between atoms: _55  and  _57
REMARK   23  A    between atoms: _57  and  _58
REMARK   24  A    between atoms: _60  and  _62
REMARK   25  A    between atoms: _62  and  _63
REMARK   26  A    between atoms: _62  and  _65
REMARK   27  A    between atoms: _65  and  _66
REMARK   28  A    between atoms: _69  and  _71
REMARK   29  A    between atoms: _71  and  _72
REMARK   30  A    between atoms: _74  and  _76
REMARK   31  A    between atoms: _76  and  _77
REMARK   32  A    between atoms: _76  and  _79
REMARK   33  A    between atoms: _79  and  _80
REMARK   34  A    between atoms: _80  and  _81
REMARK   35  A    between atoms: _81  and  _82
REMARK   36  A    between atoms: _91  and  _93
REMARK   37  A    between atoms: _93  and  _94
REMARK   38  A    between atoms: _93  and  _96
REMARK   39  A    between atoms: _96  and  _97
REMARK   40  A    between atoms: _100  and  _102
REMARK   41  A    between atoms: _102  and  _103
REMARK   42  A    between atoms: _106  and  _108
REMARK   43  A    between atoms: _108  and  _109
REMARK   44  A    between atoms: _108  and  _111
REMARK   45  A    between atoms: _111  and  _112
REMARK   46  A    between atoms: _118  and  _120
REMARK   47  A    between atoms: _120  and  _121
REMARK   48  A    between atoms: _120  and  _123
REMARK   49  A    between atoms: _123  and  _124
REMARK   50  A    between atoms: _129  and  _131
REMARK   51  A    between atoms: _131  and  _132
REMARK   52  A    between atoms: _131  and  _134
REMARK   53  A    between atoms: _134  and  _135
REMARK   54  A    between atoms: _138  and  _140
REMARK   55  A    between atoms: _140  and  _141
REMARK   56  A    between atoms: _140  and  _143
REMARK   57  A    between atoms: _143  and  _144
REMARK   58  A    between atoms: _149  and  _151
REMARK   59  A    between atoms: _151  and  _152
REMARK   60  A    between atoms: _151  and  _154
REMARK   61  A    between atoms: _154  and  _155
REMARK   62  A    between atoms: _161  and  _163
REMARK   63  A    between atoms: _163  and  _164
REMARK   64  A    between atoms: _163  and  _166
REMARK   65  A    between atoms: _166  and  _167
REMARK   66  A    between atoms: _173  and  _175
REMARK   67  A    between atoms: _175  and  _176
REMARK   68  A    between atoms: _175  and  _178
REMARK   69  A    between atoms: _178  and  _179
REMARK   70  A    between atoms: _179  and  _180
REMARK   71  A    between atoms: _180  and  _181
REMARK   72  A    between atoms: _190  and  _192
REMARK   73  A    between atoms: _192  and  _193
REMARK   74  A    between atoms: _192  and  _195
REMARK   75  A    between atoms: _195  and  _196
REMARK   76  A    between atoms: _196  and  _197
REMARK   77  A    between atoms: _200  and  _202
REMARK   78  A    between atoms: _202  and  _203
REMARK   79  A    between atoms: _202  and  _205
REMARK   80  A    between atoms: _205  and  _206
REMARK   81  A    between atoms: _211  and  _213
REMARK   82  A    between atoms: _213  and  _214
REMARK   83  A    between atoms: _213  and  _216
REMARK   84  A    between atoms: _216  and  _217
REMARK   85  A    between atoms: _220  and  _222
REMARK   86  A    between atoms: _222  and  _223
REMARK   87  A    between atoms: _222  and  _225
REMARK   88  A    between atoms: _225  and  _226
REMARK   89  A    between atoms: _229  and  _231
REMARK   90  A    between atoms: _231  and  _232
REMARK   91  A    between atoms: _231  and  _234
REMARK   92  A    between atoms: _234  and  _235
REMARK   93  A    between atoms: _241  and  _242
REMARK   94  A    between atoms: _247  and  _249
REMARK   95  A    between atoms: _249  and  _250
REMARK   96  A    between atoms: _249  and  _252
REMARK   97  A    between atoms: _252  and  _253
REMARK   98  A    between atoms: _258  and  _259
REMARK   99  A    between atoms: _261  and  _263
REMARK  100  A    between atoms: _263  and  _264
REMARK  101  A    between atoms: _263  and  _266
REMARK  102  A    between atoms: _266  and  _267
REMARK  103  A    between atoms: _270  and  _272
REMARK  104  A    between atoms: _272  and  _273
REMARK  105  A    between atoms: _272  and  _275
REMARK  106  A    between atoms: _275  and  _276
REMARK  107  A    between atoms: _281  and  _283
REMARK  108  A    between atoms: _283  and  _284
REMARK  109  A    between atoms: _283  and  _286
REMARK  110  A    between atoms: _286  and  _287
REMARK  111  A    between atoms: _292  and  _294
REMARK  112  A    between atoms: _294  and  _295
REMARK  113  A    between atoms: _294  and  _297
REMARK  114  A    between atoms: _297  and  _298
REMARK  115  A    between atoms: _301  and  _303
REMARK  116  A    between atoms: _303  and  _304
REMARK  117  A    between atoms: _303  and  _306
REMARK  118  A    between atoms: _309  and  _311
REMARK  119  A    between atoms: _311  and  _312
REMARK  120  A    between atoms: _311  and  _314
REMARK  121  A    between atoms: _314  and  _315
REMARK  122  A    between atoms: _319  and  _320
REMARK  123  A    between atoms: _325  and  _327
REMARK  124  A    between atoms: _327  and  _328
REMARK  125  A    between atoms: _327  and  _330
REMARK  126  A    between atoms: _330  and  _331
REMARK  127  A    between atoms: _331  and  _332
REMARK  128  A    between atoms: _335  and  _337
REMARK  129  A    between atoms: _337  and  _338
REMARK  130  A    between atoms: _341  and  _343
REMARK  131  A    between atoms: _343  and  _344
REMARK  132  A    between atoms: _343  and  _346
REMARK  133  A    between atoms: _346  and  _347
REMARK  134  A    between atoms: _350  and  _352
REMARK  135  A    between atoms: _352  and  _353
REMARK  136  A    between atoms: _352  and  _355
REMARK  137  A    between atoms: _355  and  _356
REMARK  138  A    between atoms: _356  and  _357
REMARK  139  A    between atoms: _360  and  _362
REMARK  140  A    between atoms: _362  and  _363
REMARK  141  A    between atoms: _362  and  _365
REMARK  142  A    between atoms: _365  and  _366
REMARK  143  A    between atoms: _366  and  _367
REMARK  144  A    between atoms: _369  and  _371
REMARK  145  A    between atoms: _371  and  _372
REMARK  146  A    between atoms: _375  and  _377
REMARK  147  A    between atoms: _377  and  _378
REMARK  148  A    between atoms: _377  and  _380
REMARK  149  A    between atoms: _380  and  _381
REMARK  150  A    between atoms: _386  and  _388
REMARK  151  A    between atoms: _388  and  _389
REMARK  152  A    between atoms: _391  and  _393
REMARK  153  A    between atoms: _393  and  _394
REMARK  154  A    between atoms: _393  and  _396
REMARK  155  A    between atoms: _399  and  _401
REMARK  156  A    between atoms: _401  and  _402
REMARK  157  A    between atoms: _405  and  _407
REMARK  158  A    between atoms: _407  and  _408
REMARK  159  A    between atoms: _407  and  _410
REMARK  160  A    between atoms: _410  and  _411
REMARK  161  A    between atoms: _416  and  _418
REMARK  162  A    between atoms: _418  and  _419
REMARK  163  A    between atoms: _418  and  _421
REMARK  164  A    between atoms: _421  and  _422
REMARK  165  A    between atoms: _428  and  _430
REMARK  166  A    between atoms: _430  and  _431
REMARK  167  A    between atoms: _430  and  _433
REMARK  168  A    between atoms: _433  and  _434
REMARK  169  A    between atoms: _434  and  _435
REMARK  170  A    between atoms: _435  and  _436
REMARK  171  A    between atoms: _436  and  _437
REMARK  172  A    between atoms: _441  and  _443
REMARK  173  A    between atoms: _443  and  _444
REMARK  174  A    between atoms: _443  and  _446
REMARK  175  A    between atoms: _446  and  _447
REMARK  176  A    between atoms: _450  and  _452
REMARK  177  A    between atoms: _452  and  _453
REMARK  178  A    between atoms: _452  and  _455
REMARK  179  A    between atoms: _455  and  _456
REMARK  180  A    between atoms: _461  and  _463
REMARK  181  A    between atoms: _463  and  _464
REMARK  182  A    between atoms: _466  and  _468
REMARK  183  A    between atoms: _468  and  _469
REMARK  184  A    between atoms: _468  and  _471
REMARK  185  A    between atoms: _471  and  _472
REMARK  186  A    between atoms: _475  and  _477
REMARK  187  A    between atoms: _477  and  _478
REMARK  188  A    between atoms: _477  and  _480
REMARK  189  A    between atoms: _480  and  _481
REMARK  190  A    between atoms: _481  and  _482
REMARK  191  A    between atoms: _482  and  _483
REMARK  192  A    between atoms: _483  and  _484
REMARK  193  A    between atoms: _488  and  _490
REMARK  194  A    between atoms: _490  and  _491
REMARK  195  A    between atoms: _490  and  _493
REMARK  196  A    between atoms: _493  and  _494
REMARK  197  A    between atoms: _494  and  _495
REMARK  198  A    between atoms: _495  and  _496
REMARK  199  A    between atoms: _505  and  _507
REMARK  200  A    between atoms: _507  and  _508
REMARK  201  A    between atoms: _507  and  _510
REMARK  202  A    between atoms: _510  and  _511
REMARK  203  A    between atoms: _516  and  _518
REMARK  204  A    between atoms: _518  and  _519
REMARK  205  A    between atoms: _518  and  _521
REMARK  206  A    between atoms: _521  and  _522
REMARK  207  A    between atoms: _527  and  _528
REMARK  208  A    between atoms: _530  and  _532
REMARK  209  A    between atoms: _532  and  _533
REMARK  210  A    between atoms: _532  and  _535
REMARK  211  A    between atoms: _535  and  _536
REMARK  212  A    between atoms: _536  and  _537
REMARK  213  A    between atoms: _537  and  _538
REMARK  214  A    between atoms: _538  and  _539
REMARK  215  A    between atoms: _543  and  _545
REMARK  216  A    between atoms: _545  and  _546
REMARK  217  A    between atoms: _545  and  _548
REMARK  218  A    between atoms: _548  and  _549
REMARK  219  A    between atoms: _551  and  _553
REMARK  220  A    between atoms: _553  and  _554
REMARK  221  A    between atoms: _553  and  _556
REMARK  222  A    between atoms: _556  and  _557
REMARK  223  A    between atoms: _560  and  _562
REMARK  224  A    between atoms: _562  and  _563
REMARK  225  A    between atoms: _562  and  _565
REMARK  226  A    between atoms: _565  and  _566
REMARK  227  A    between atoms: _566  and  _567
REMARK  228  A    between atoms: _570  and  _572
REMARK  229  A    between atoms: _572  and  _573
REMARK  230  A    between atoms: _576  and  _578
REMARK  231  A    between atoms: _578  and  _579
REMARK  232  A    between atoms: _578  and  _581
REMARK  233  A    between atoms: _581  and  _582
REMARK  234  A    between atoms: _584  and  _586
REMARK  235  A    between atoms: _586  and  _587
REMARK  236  A    between atoms: _589  and  _591
REMARK  237  A    between atoms: _591  and  _592
REMARK  238  A    between atoms: _591  and  _594
REMARK  239  A    between atoms: _594  and  _595
REMARK  240  A    between atoms: _598  and  _600
REMARK  241  A    between atoms: _600  and  _601
REMARK  242  A    between atoms: _603  and  _605
REMARK  243  A    between atoms: _605  and  _606
REMARK  244  A    between atoms: _605  and  _608
REMARK  245  A    between atoms: _608  and  _609
REMARK  246  A    between atoms: _614  and  _616
REMARK  247  A    between atoms: _616  and  _617
REMARK  248  A    between atoms: _616  and  _619
REMARK  249  A    between atoms: _619  and  _620
REMARK  250  A    between atoms: _620  and  _621
REMARK  251  A    between atoms: _628  and  _629
REMARK  252  A    between atoms: _629  and  _645
REMARK  253  A    between atoms: _630  and  _632
REMARK  254  A    between atoms: _632  and  _633
REMARK  255  A    between atoms: _633  and  _634
REMARK  256  A    between atoms: _638  and  _640
REMARK  257  A    between atoms: _640  and  _641
REMARK  258  A    between atoms: _640  and  _648
REMARK  259  A    between atoms: _641  and  _642
REMARK  260  A    between atoms: _642  and  _643
REMARK  261  A    between atoms: _643  and  _644
REMARK  262  A    between atoms: _644  and  _645
REMARK  263  A    between atoms: _650  and  _652
REMARK  264  A    between atoms: _652  and  _653
REMARK  265  A    between atoms: _652  and  _655
REMARK  266  A    between atoms: _655  and  _656
REMARK  267  A    between atoms: _659  and  _661
REMARK  268  A    between atoms: _661  and  _662
REMARK  269  A    between atoms: _664  and  _666
REMARK  270  A    between atoms: _666  and  _667
REMARK  271  A    between atoms: _670  and  _672
REMARK  272  A    between atoms: _672  and  _673
REMARK  273  A    between atoms: _672  and  _675
REMARK  274  A    between atoms: _675  and  _676
REMARK  275  A    between atoms: _679  and  _681
REMARK  276  A    between atoms: _681  and  _682
REMARK  277  A    between atoms: _681  and  _684
REMARK  278  A    between atoms: _684  and  _685
REMARK  279  A    between atoms: _690  and  _691
REMARK                            x       y       z     vdW  Elec       q    Type
REMARK                         _______ _______ _______ _____ _____    ______ ____
ROOT
ATOM      1  CA  VAL A   6      42.501  24.197  23.540  0.00  0.00    +0.149 C 
ENDROOT
BRANCH   1   2
ATOM      2  C   VAL A   6      42.780  25.662  23.705  0.00  0.00    +0.241 C 
ATOM      3  N   LEU A   7      41.797  26.421  24.183  0.00  0.00    -0.297 N 
ATOM      4  H   LEU A   7      40.877  25.986  24.396  0.00  0.00    +0.150 HD
ATOM      5  O   VAL A   6      43.864  26.110  23.387  0.00  0.00    -0.273 OA
BRANCH   3   6
ATOM      6  CA  LEU A   7      41.982  27.846  24.414  0.00  0.00    +0.149 C 
BRANCH   6   7
ATOM      7  C   LEU A   7      43.129  28.110  25.397  0.00  0.00    +0.244 C 
ATOM      8  O   LEU A   7      43.097  27.626  26.525  0.00  0.00    -0.273 OA
ATOM      9  N   PRO A   8      44.154  28.867  24.967  0.00  0.00    -0.272 N 
ATOM     10  CA  PRO A   8      45.323  29.101  25.860  0.00  0.00    +0.152 C 
ATOM     11  CB  PRO A   8      46.259  30.024  25.038  0.00  0.00    +0.031 C 
ATOM     12  CG  PRO A   8      45.469  30.449  23.804  0.00  0.00    +0.024 C 
ATOM     13  CD  PRO A   8      44.398  29.358  23.594  0.00  0.00    +0.094 C 
BRANCH  10  14
ATOM     14  C   PRO A   8      45.000  29.727  27.200  0.00  0.00    +0.241 C 
ATOM     15  O   PRO A   8      45.541  29.307  28.212  0.00  0.00    -0.273 OA
ATOM     16  N   GLU A   9      44.133  30.710  27.238  0.00  0.00    -0.297 N 
ATOM     17  H   GLU A   9      43.697  31.054  26.359  0.00  0.00    +0.150 HD
BRANCH  16  18
ATOM     18  CA  GLU A   9      43.780  31.322  28.516  0.00  0.00    +0.149 C 
BRANCH  18  19
ATOM     19  C   GLU A   9      42.990  30.428  29.519  0.00  0.00    +0.241 C 
ATOM     20  O   GLU A   9      42.800  30.833  30.686  0.00  0.00    -0.273 OA
ATOM     21  N   ALA A  10      42.523  29.259  29.080  0.00  0.00    -0.297 N 
ATOM     22  H   ALA A  10      42.700  28.979  28.094  0.00  0.00    +0.150 HD
BRANCH  21  23
ATOM     23  CA  ALA A  10      41.764  28.358  29.958  0.00  0.00    +0.149 C 
ATOM     24  CB  ALA A  10      40.614  27.660  29.205  0.00  0.00    +0.031 C 
BRANCH  23  25
ATOM     25  C   ALA A  10      42.668  27.330  30.652  0.00  0.00    +0.241 C 
ATOM     26  O   ALA A  10      42.279  26.778  31.666  0.00  0.00    -0.273 OA
ATOM     27  N   LEU A  11      43.872  27.077  30.112  0.00  0.00    -0.297 N 
ATOM     28  H   LEU A  11      44.180  27.620  29.280  0.00  0.00    +0.150 HD
BRANCH  27  29
ATOM     29  CA  LEU A  11      44.767  26.046  30.673  0.00  0.00    +0.149 C 
BRANCH  29  30
ATOM     30  C   LEU A  11      45.364  26.393  32.050  0.00  0.00    +0.241 C 
ATOM     31  N   GLU A  12      45.483  25.396  32.923  0.00  0.00    -0.298 N 
ATOM     32  H   GLU A  12      45.240  24.429  32.626  0.00  0.00    +0.150 HD
ATOM     33  O   LEU A  11      45.713  27.531  32.312  0.00  0.00    -0.273 OA
BRANCH  31  34
ATOM     34  CA  GLU A  12      45.946  25.628  34.286  0.00  0.00    +0.137 C 
BRANCH  34  35
ATOM     35  C   GLU A  12      47.450  25.618  34.352  0.00  0.00    +0.227 C 
ATOM     36  O   GLU A  12      48.067  24.659  33.947  0.00  0.00    -0.286 OA
ENDBRANCH  34  35
BRANCH  34  37
ATOM     37  CB  GLU A  12      45.354  24.588  35.238  0.00  0.00    +0.039 C 
BRANCH  37  38
ATOM     38  CG  GLU A  12      43.912  24.844  35.496  0.00  0.00    +0.116 C 
BRANCH  38  39
ATOM     39  CD  GLU A  12      43.347  24.073  36.670  0.00  0.00    +0.365 C 
ATOM     40  OE2 GLU A  12      42.784  24.756  37.557  0.00  0.00    -0.246 OA
ATOM     41  OE1 GLU A  12      43.430  22.814  36.695  0.00  0.00    -0.246 OA
ENDBRANCH  38  39
ENDBRANCH  37  38
ENDBRANCH  34  37
ENDBRANCH  31  34
ENDBRANCH  29  30
BRANCH  29  42
ATOM     42  CB  LEU A  11      45.868  25.705  29.690  0.00  0.00    +0.029 C 
BRANCH  42  43
ATOM     43  CG  LEU A  11      45.479  25.249  28.272  0.00  0.00    +0.002 C 
ATOM     44  CD2 LEU A  11      44.438  24.146  28.218  0.00  0.00    +0.000 C 
ATOM     45  CD1 LEU A  11      46.784  24.782  27.579  0.00  0.00    +0.000 C 
ENDBRANCH  42  43
ENDBRANCH  29  42
ENDBRANCH  27  29
ENDBRANCH  23  25
ENDBRANCH  21  23
ENDBRANCH  18  19
BRANCH  18  46
ATOM     46  CB  GLU A   9      43.014  32.634  28.289  0.00  0.00    +0.041 C 
BRANCH  46  47
ATOM     47  CG  GLU A   9      41.588  32.459  27.719  0.00  0.00    +0.116 C 
BRANCH  47  48
ATOM     48  CD  GLU A   9      41.555  32.408  26.186  0.00  0.00    +0.365 C 
ATOM     49  OE2 GLU A   9      40.589  32.986  25.604  0.00  0.00    -0.246 OA
ATOM     50  OE1 GLU A   9      42.472  31.796  25.570  0.00  0.00    -0.246 OA
ENDBRANCH  47  48
ENDBRANCH  46  47
ENDBRANCH  18  46
ENDBRANCH  16  18
ENDBRANCH  10  14
ENDBRANCH   6   7
BRANCH   6  51
ATOM     51  CB  LEU A   7      40.705  28.448  24.953  0.00  0.00    +0.029 C 
BRANCH  51  52
ATOM     52  CG  LEU A   7      39.457  28.604  24.063  0.00  0.00    +0.002 C 
ATOM     53  CD2 LEU A   7      38.391  29.352  24.889  0.00  0.00    +0.000 C 
ATOM     54  CD1 LEU A   7      39.679  29.305  22.719  0.00  0.00    +0.000 C 
ENDBRANCH  51  52
ENDBRANCH   6  51
ENDBRANCH   3   6
ENDBRANCH   1   2
BRANCH   1  57
ATOM     55  C   THR A   5      40.930  23.043  24.978  0.00  0.00    +0.243 C 
ATOM     56  O   THR A   5      41.823  22.329  25.432  0.00  0.00    -0.273 OA
ATOM     57  N   VAL A   6      41.133  23.895  23.979  0.00  0.00    -0.297 N 
ATOM     58  H   VAL A   6      40.324  24.348  23.508  0.00  0.00    +0.150 HD
BRANCH  55  59
ATOM     59  CA  THR A   5      39.512  22.952  25.530  0.00  0.00    +0.176 C 
BRANCH  59  61
ATOM     60  C   HIS A   4      38.068  21.275  26.561  0.00  0.00    +0.241 C 
ATOM     61  N   THR A   5      39.303  21.706  26.288  0.00  0.00    -0.295 N 
ATOM     62  H   THR A   5      40.124  21.157  26.614  0.00  0.00    +0.150 HD
ATOM     63  O   HIS A   4      37.067  21.909  26.249  0.00  0.00    -0.273 OA
BRANCH  60  64
ATOM     64  CA  HIS A   4      37.901  19.982  27.356  0.00  0.00    +0.155 C 
BRANCH  64  66
ATOM     65  C   ASN A   3      39.477  18.132  27.351  0.00  0.00    +0.241 C 
ATOM     66  N   HIS A   4      39.117  19.331  27.786  0.00  0.00    -0.297 N 
ATOM     67  H   HIS A   4      39.734  19.823  28.464  0.00  0.00    +0.150 HD
ATOM     68  O   ASN A   3      38.873  17.515  26.463  0.00  0.00    -0.273 OA
BRANCH  65  69
ATOM     69  CA  ASN A   3      40.730  17.561  27.974  0.00  0.00    +0.158 C 
BRANCH  69  72
ATOM     70  C   THR A   2      40.084  15.687  29.452  0.00  0.00    +0.243 C 
ATOM     71  O   THR A   2      39.937  16.416  30.438  0.00  0.00    -0.273 OA
ATOM     72  N   ASN A   3      40.467  16.153  28.256  0.00  0.00    -0.297 N 
ATOM     73  H   ASN A   3      40.584  15.470  27.481  0.00  0.00    +0.150 HD
BRANCH  70  74
ATOM     74  CA  THR A   2      39.843  14.173  29.570  0.00  0.00    +0.176 C 
BRANCH  74  76
ATOM     75  C   TYR A   1      41.764  12.806  30.404  0.00  0.00    +0.239 C 
ATOM     76  N   THR A   2      40.718  13.618  30.617  0.00  0.00    -0.295 N 
ATOM     77  H   THR A   2      40.507  13.877  31.602  0.00  0.00    +0.150 HD
ATOM     78  O   TYR A   1      42.091  12.395  29.296  0.00  0.00    -0.274 OA
BRANCH  75  79
ATOM     79  CA  TYR A   1      42.610  12.391  31.635  0.00  0.00    +0.149 C 
BRANCH  79  80
ATOM     80  N   TYR A   1      42.825  10.950  31.710  0.00  0.00    -0.238 NA
ATOM     81  H   TYR A   1      43.238  10.462  30.890  0.00  0.00    +0.142 HD
ENDBRANCH  79  80
BRANCH  79  82
ATOM     82  CB  TYR A   1      43.982  13.108  31.675  0.00  0.00    +0.053 C 
BRANCH  82  83
ATOM     83  CG  TYR A   1      44.037  14.539  31.134  0.00  0.00    -0.020 A 
ATOM     84  CD2 TYR A   1      43.356  15.555  31.757  0.00  0.00    -0.001 A 
ATOM     85  CE2 TYR A   1      43.377  16.855  31.275  0.00  0.00    +0.036 A 
ATOM     86  CZ  TYR A   1      44.136  17.187  30.188  0.00  0.00    +0.134 A 
ATOM     87  CE1 TYR A   1      44.853  16.206  29.550  0.00  0.00    +0.036 A 
ATOM     88  CD1 TYR A   1      44.781  14.865  30.019  0.00  0.00    -0.001 A 
BRANCH  86  89
ATOM     89  OH  TYR A   1      44.105  18.508  29.752  0.00  0.00    -0.506 OA
ATOM     90  HH  TYR A   1      43.178  18.751  29.504  0.00  0.00    +0.292 HD
ENDBRANCH  86  89
ENDBRANCH  82  83
ENDBRANCH  79  82
ENDBRANCH  75  79
ENDBRANCH  74  76
BRANCH  74  91
ATOM     91  CB  THR A   2      38.362  13.958  29.948  0.00  0.00    +0.137 C 
ATOM     92  CG2 THR A   2      37.361  14.486  28.901  0.00  0.00    +0.034 C 
BRANCH  91  93
ATOM     93  OG1 THR A   2      38.145  12.571  30.122  0.00  0.00    -0.382 OA
ATOM     94  HG1 THR A   2      38.353  12.097  29.278  0.00  0.00    +0.210 HD
ENDBRANCH  91  93
ENDBRANCH  74  91
ENDBRANCH  70  74
ENDBRANCH  69  72
BRANCH  69  95
ATOM     95  CB  ASN A   3      41.919  17.716  27.013  0.00  0.00    +0.114 C 
BRANCH  95  96
ATOM     96  CG  ASN A   3      42.046  19.145  26.443  0.00  0.00    +0.222 C 
ATOM     97  ND2 ASN A   3      42.784  20.007  27.139  0.00  0.00    -0.329 N 
ATOM     98 HD21 ASN A   3      43.264  19.697  28.008  0.00  0.00    +0.145 HD
ATOM     99 HD22 ASN A   3      42.880  20.990  26.814  0.00  0.00    +0.145 HD
ATOM    100  OD1 ASN A   3      41.464  19.467  25.415  0.00  0.00    -0.275 OA
ENDBRANCH  95  96
ENDBRANCH  69  95
ENDBRANCH  65  69
ENDBRANCH  64  66
BRANCH  64 101
ATOM    101  CB  HIS A   4      37.081  20.310  28.604  0.00  0.00    +0.076 C 
BRANCH 101 102
ATOM    102  CG  HIS A   4      36.543  19.106  29.280  0.00  0.00    +0.082 A 
ATOM    103  CD2 HIS A   4      37.097  18.270  30.198  0.00  0.00    +0.115 A 
ATOM    104  NE2 HIS A   4      36.174  17.274  30.447  0.00  0.00    -0.221 NA
ATOM    105  CE1 HIS A   4      35.096  17.495  29.702  0.00  0.00    +0.199 A 
ATOM    106  ND1 HIS A   4      35.302  18.587  28.974  0.00  0.00    -0.227 NA
ENDBRANCH 101 102
ENDBRANCH  64 101
ENDBRANCH  60  64
ENDBRANCH  59  61
BRANCH  59 107
ATOM    107  CB  THR A   5      39.200  24.231  26.368  0.00  0.00    +0.137 C 
ATOM    108  CG2 THR A   5      40.324  24.528  27.323  0.00  0.00    +0.034 C 
BRANCH 107 109
ATOM    109  OG1 THR A   5      39.055  25.360  25.495  0.00  0.00    -0.382 OA
ATOM    110  HG1 THR A   5      38.312  25.193  24.862  0.00  0.00    +0.210 HD
ENDBRANCH 107 109
ENDBRANCH  59 107
ENDBRANCH  55  59
ENDBRANCH   1  57
BRANCH   1 111
ATOM    111  CB  VAL A   6      42.784  23.815  22.084  0.00  0.00    +0.027 C 
ATOM    112  CG2 VAL A   6      42.685  22.299  21.906  0.00  0.00    +0.002 C 
ATOM    113  CG1 VAL A   6      41.867  24.598  21.082  0.00  0.00    +0.002 C 
ENDBRANCH   1 111
TORSDOF 45
REMARK  Name = ../refined-set-2016/4eky/4eky_pocket.pdb
REMARK  279 active torsions:
REMARK  status: ('A' for Active; 'I' for Inactive)
REMARK    1  A    between atoms: _1  and  _3
REMARK    2  A    between atoms: _3  and  _4
REMARK    3  A    between atoms: _3  and  _6
REMARK    4  A    between atoms: _6  and  _7
REMARK    5  A    between atoms: _12  and  _13
REMARK    6  A    between atoms: _15  and  _17
REMARK    7  A    between atoms: _17  and  _18
REMARK    8  A    between atoms: _17  and  _20
REMARK    9  A    between atoms: _20  and  _21
REMARK   10  A    between atoms: _21  and  _22
REMARK   11  A    between atoms: _25  and  _27
REMARK   12  A    between atoms: _27  and  _28
REMARK   13  A    between atoms: _27  and  _30
REMARK   14  A    between atoms: _30  and  _31
REMARK   15  A    between atoms: _36  and  _37
REMARK   16  A    between atoms: _39  and  _41
REMARK   17  A    between atoms: _41  and  _42
REMARK   18  A    between atoms: _41  and  _44
REMARK   19  A    between atoms: _44  and  _45
REMARK   20  A    between atoms: _50  and  _52
REMARK   21  A    between atoms: _52  and  _53
REMARK   22  A    between atoms: _55  and  _57
REMARK   23  A    between atoms: _57  and  _58
REMARK   24  A    between atoms: _60  and  _62
REMARK   25  A    between atoms: _62  and  _63
REMARK   26  A    between atoms: _62  and  _65
REMARK   27  A    between atoms: _65  and  _66
REMARK   28  A    between atoms: _69  and  _71
REMARK   29  A    between atoms: _71  and  _72
REMARK   30  A    between atoms: _74  and  _76
REMARK   31  A    between atoms: _76  and  _77
REMARK   32  A    between atoms: _76  and  _79
REMARK   33  A    between atoms: _79  and  _80
REMARK   34  A    between atoms: _80  and  _81
REMARK   35  A    between atoms: _81  and  _82
REMARK   36  A    between atoms: _91  and  _93
REMARK   37  A    between atoms: _93  and  _94
REMARK   38  A    between atoms: _93  and  _96
REMARK   39  A    between atoms: _96  and  _97
REMARK   40  A    between atoms: _100  and  _102
REMARK   41  A    between atoms: _102  and  _103
REMARK   42  A    between atoms: _106  and  _108
REMARK   43  A    between atoms: _108  and  _109
REMARK   44  A    between atoms: _108  and  _111
REMARK   45  A    between atoms: _111  and  _112
REMARK   46  A    between atoms: _118  and  _120
REMARK   47  A    between atoms: _120  and  _121
REMARK   48  A    between atoms: _120  and  _123
REMARK   49  A    between atoms: _123  and  _124
REMARK   50  A    between atoms: _129  and  _131
REMARK   51  A    between atoms: _131  and  _132
REMARK   52  A    between atoms: _131  and  _134
REMARK   53  A    between atoms: _134  and  _135
REMARK   54  A    between atoms: _138  and  _140
REMARK   55  A    between atoms: _140  and  _141
REMARK   56  A    between atoms: _140  and  _143
REMARK   57  A    between atoms: _143  and  _144
REMARK   58  A    between atoms: _149  and  _151
REMARK   59  A    between atoms: _151  and  _152
REMARK   60  A    between atoms: _151  and  _154
REMARK   61  A    between atoms: _154  and  _155
REMARK   62  A    between atoms: _161  and  _163
REMARK   63  A    between atoms: _163  and  _164
REMARK   64  A    between atoms: _163  and  _166
REMARK   65  A    between atoms: _166  and  _167
REMARK   66  A    between atoms: _173  and  _175
REMARK   67  A    between atoms: _175  and  _176
REMARK   68  A    between atoms: _175  and  _178
REMARK   69  A    between atoms: _178  and  _179
REMARK   70  A    between atoms: _179  and  _180
REMARK   71  A    between atoms: _180  and  _181
REMARK   72  A    between atoms: _190  and  _192
REMARK   73  A    between atoms: _192  and  _193
REMARK   74  A    between atoms: _192  and  _195
REMARK   75  A    between atoms: _195  and  _196
REMARK   76  A    between atoms: _196  and  _197
REMARK   77  A    between atoms: _200  and  _202
REMARK   78  A    between atoms: _202  and  _203
REMARK   79  A    between atoms: _202  and  _205
REMARK   80  A    between atoms: _205  and  _206
REMARK   81  A    between atoms: _211  and  _213
REMARK   82  A    between atoms: _213  and  _214
REMARK   83  A    between atoms: _213  and  _216
REMARK   84  A    between atoms: _216  and  _217
REMARK   85  A    between atoms: _220  and  _222
REMARK   86  A    between atoms: _222  and  _223
REMARK   87  A    between atoms: _222  and  _225
REMARK   88  A    between atoms: _225  and  _226
REMARK   89  A    between atoms: _229  and  _231
REMARK   90  A    between atoms: _231  and  _232
REMARK   91  A    between atoms: _231  and  _234
REMARK   92  A    between atoms: _234  and  _235
REMARK   93  A    between atoms: _241  and  _242
REMARK   94  A    between atoms: _247  and  _249
REMARK   95  A    between atoms: _249  and  _250
REMARK   96  A    between atoms: _249  and  _252
REMARK   97  A    between atoms: _252  and  _253
REMARK   98  A    between atoms: _258  and  _259
REMARK   99  A    between atoms: _261  and  _263
REMARK  100  A    between atoms: _263  and  _264
REMARK  101  A    between atoms: _263  and  _266
REMARK  102  A    between atoms: _266  and  _267
REMARK  103  A    between atoms: _270  and  _272
REMARK  104  A    between atoms: _272  and  _273
REMARK  105  A    between atoms: _272  and  _275
REMARK  106  A    between atoms: _275  and  _276
REMARK  107  A    between atoms: _281  and  _283
REMARK  108  A    between atoms: _283  and  _284
REMARK  109  A    between atoms: _283  and  _286
REMARK  110  A    between atoms: _286  and  _287
REMARK  111  A    between atoms: _292  and  _294
REMARK  112  A    between atoms: _294  and  _295
REMARK  113  A    between atoms: _294  and  _297
REMARK  114  A    between atoms: _297  and  _298
REMARK  115  A    between atoms: _301  and  _303
REMARK  116  A    between atoms: _303  and  _304
REMARK  117  A    between atoms: _303  and  _306
REMARK  118  A    between atoms: _309  and  _311
REMARK  119  A    between atoms: _311  and  _312
REMARK  120  A    between atoms: _311  and  _314
REMARK  121  A    between atoms: _314  and  _315
REMARK  122  A    between atoms: _319  and  _320
REMARK  123  A    between atoms: _325  and  _327
REMARK  124  A    between atoms: _327  and  _328
REMARK  125  A    between atoms: _327  and  _330
REMARK  126  A    between atoms: _330  and  _331
REMARK  127  A    between atoms: _331  and  _332
REMARK  128  A    between atoms: _335  and  _337
REMARK  129  A    between atoms: _337  and  _338
REMARK  130  A    between atoms: _341  and  _343
REMARK  131  A    between atoms: _343  and  _344
REMARK  132  A    between atoms: _343  and  _346
REMARK  133  A    between atoms: _346  and  _347
REMARK  134  A    between atoms: _350  and  _352
REMARK  135  A    between atoms: _352  and  _353
REMARK  136  A    between atoms: _352  and  _355
REMARK  137  A    between atoms: _355  and  _356
REMARK  138  A    between atoms: _356  and  _357
REMARK  139  A    between atoms: _360  and  _362
REMARK  140  A    between atoms: _362  and  _363
REMARK  141  A    between atoms: _362  and  _365
REMARK  142  A    between atoms: _365  and  _366
REMARK  143  A    between atoms: _366  and  _367
REMARK  144  A    between atoms: _369  and  _371
REMARK  145  A    between atoms: _371  and  _372
REMARK  146  A    between atoms: _375  and  _377
REMARK  147  A    between atoms: _377  and  _378
REMARK  148  A    between atoms: _377  and  _380
REMARK  149  A    between atoms: _380  and  _381
REMARK  150  A    between atoms: _386  and  _388
REMARK  151  A    between atoms: _388  and  _389
REMARK  152  A    between atoms: _391  and  _393
REMARK  153  A    between atoms: _393  and  _394
REMARK  154  A    between atoms: _393  and  _396
REMARK  155  A    between atoms: _399  and  _401
REMARK  156  A    between atoms: _401  and  _402
REMARK  157  A    between atoms: _405  and  _407
REMARK  158  A    between atoms: _407  and  _408
REMARK  159  A    between atoms: _407  and  _410
REMARK  160  A    between atoms: _410  and  _411
REMARK  161  A    between atoms: _416  and  _418
REMARK  162  A    between atoms: _418  and  _419
REMARK  163  A    between atoms: _418  and  _421
REMARK  164  A    between atoms: _421  and  _422
REMARK  165  A    between atoms: _428  and  _430
REMARK  166  A    between atoms: _430  and  _431
REMARK  167  A    between atoms: _430  and  _433
REMARK  168  A    between atoms: _433  and  _434
REMARK  169  A    between atoms: _434  and  _435
REMARK  170  A    between atoms: _435  and  _436
REMARK  171  A    between atoms: _436  and  _437
REMARK  172  A    between atoms: _441  and  _443
REMARK  173  A    between atoms: _443  and  _444
REMARK  174  A    between atoms: _443  and  _446
REMARK  175  A    between atoms: _446  and  _447
REMARK  176  A    between atoms: _450  and  _452
REMARK  177  A    between atoms: _452  and  _453
REMARK  178  A    between atoms: _452  and  _455
REMARK  179  A    between atoms: _455  and  _456
REMARK  180  A    between atoms: _461  and  _463
REMARK  181  A    between atoms: _463  and  _464
REMARK  182  A    between atoms: _466  and  _468
REMARK  183  A    between atoms: _468  and  _469
REMARK  184  A    between atoms: _468  and  _471
REMARK  185  A    between atoms: _471  and  _472
REMARK  186  A    between atoms: _475  and  _477
REMARK  187  A    between atoms: _477  and  _478
REMARK  188  A    between atoms: _477  and  _480
REMARK  189  A    between atoms: _480  and  _481
REMARK  190  A    between atoms: _481  and  _482
REMARK  191  A    between atoms: _482  and  _483
REMARK  192  A    between atoms: _483  and  _484
REMARK  193  A    between atoms: _488  and  _490
REMARK  194  A    between atoms: _490  and  _491
REMARK  195  A    between atoms: _490  and  _493
REMARK  196  A    between atoms: _493  and  _494
REMARK  197  A    between atoms: _494  and  _495
REMARK  198  A    between atoms: _495  and  _496
REMARK  199  A    between atoms: _505  and  _507
REMARK  200  A    between atoms: _507  and  _508
REMARK  201  A    between atoms: _507  and  _510
REMARK  202  A    between atoms: _510  and  _511
REMARK  203  A    between atoms: _516  and  _518
REMARK  204  A    between atoms: _518  and  _519
REMARK  205  A    between atoms: _518  and  _521
REMARK  206  A    between atoms: _521  and  _522
REMARK  207  A    between atoms: _527  and  _528
REMARK  208  A    between atoms: _530  and  _532
REMARK  209  A    between atoms: _532  and  _533
REMARK  210  A    between atoms: _532  and  _535
REMARK  211  A    between atoms: _535  and  _536
REMARK  212  A    between atoms: _536  and  _537
REMARK  213  A    between atoms: _537  and  _538
REMARK  214  A    between atoms: _538  and  _539
REMARK  215  A    between atoms: _543  and  _545
REMARK  216  A    between atoms: _545  and  _546
REMARK  217  A    between atoms: _545  and  _548
REMARK  218  A    between atoms: _548  and  _549
REMARK  219  A    between atoms: _551  and  _553
REMARK  220  A    between atoms: _553  and  _554
REMARK  221  A    between atoms: _553  and  _556
REMARK  222  A    between atoms: _556  and  _557
REMARK  223  A    between atoms: _560  and  _562
REMARK  224  A    between atoms: _562  and  _563
REMARK  225  A    between atoms: _562  and  _565
REMARK  226  A    between atoms: _565  and  _566
REMARK  227  A    between atoms: _566  and  _567
REMARK  228  A    between atoms: _570  and  _572
REMARK  229  A    between atoms: _572  and  _573
REMARK  230  A    between atoms: _576  and  _578
REMARK  231  A    between atoms: _578  and  _579
REMARK  232  A    between atoms: _578  and  _581
REMARK  233  A    between atoms: _581  and  _582
REMARK  234  A    between atoms: _584  and  _586
REMARK  235  A    between atoms: _586  and  _587
REMARK  236  A    between atoms: _589  and  _591
REMARK  237  A    between atoms: _591  and  _592
REMARK  238  A    between atoms: _591  and  _594
REMARK  239  A    between atoms: _594  and  _595
REMARK  240  A    between atoms: _598  and  _600
REMARK  241  A    between atoms: _600  and  _601
REMARK  242  A    between atoms: _603  and  _605
REMARK  243  A    between atoms: _605  and  _606
REMARK  244  A    between atoms: _605  and  _608
REMARK  245  A    between atoms: _608  and  _609
REMARK  246  A    between atoms: _614  and  _616
REMARK  247  A    between atoms: _616  and  _617
REMARK  248  A    between atoms: _616  and  _619
REMARK  249  A    between atoms: _619  and  _620
REMARK  250  A    between atoms: _620  and  _621
REMARK  251  A    between atoms: _628  and  _629
REMARK  252  A    between atoms: _629  and  _645
REMARK  253  A    between atoms: _630  and  _632
REMARK  254  A    between atoms: _632  and  _633
REMARK  255  A    between atoms: _633  and  _634
REMARK  256  A    between atoms: _638  and  _640
REMARK  257  A    between atoms: _640  and  _641
REMARK  258  A    between atoms: _640  and  _648
REMARK  259  A    between atoms: _641  and  _642
REMARK  260  A    between atoms: _642  and  _643
REMARK  261  A    between atoms: _643  and  _644
REMARK  262  A    between atoms: _644  and  _645
REMARK  263  A    between atoms: _650  and  _652
REMARK  264  A    between atoms: _652  and  _653
REMARK  265  A    between atoms: _652  and  _655
REMARK  266  A    between atoms: _655  and  _656
REMARK  267  A    between atoms: _659  and  _661
REMARK  268  A    between atoms: _661  and  _662
REMARK  269  A    between atoms: _664  and  _666
REMARK  270  A    between atoms: _666  and  _667
REMARK  271  A    between atoms: _670  and  _672
REMARK  272  A    between atoms: _672  and  _673
REMARK  273  A    between atoms: _672  and  _675
REMARK  274  A    between atoms: _675  and  _676
REMARK  275  A    between atoms: _679  and  _681
REMARK  276  A    between atoms: _681  and  _682
REMARK  277  A    between atoms: _681  and  _684
REMARK  278  A    between atoms: _684  and  _685
REMARK  279  A    between atoms: _690  and  _691
REMARK                            x       y       z     vdW  Elec       q    Type
REMARK                         _______ _______ _______ _____ _____    ______ ____
ROOT
ATOM      1  C   MET A   1      48.550  19.771  33.744  0.00  0.00    +0.238 C 
ATOM      2  O   MET A   1      48.532  18.577  34.055  0.00  0.00    -0.274 OA
ATOM      3  N   ALA A   2      48.217  20.212  32.524  0.00  0.00    -0.298 N 
ATOM      4  H   ALA A   2      48.124  21.234  32.358  0.00  0.00    +0.150 HD
ENDROOT
BRANCH   3   5
ATOM      5  CA  ALA A   2      47.981  19.277  31.418  0.00  0.00    +0.137 C 
ATOM      6  CB  ALA A   2      47.562  19.977  30.131  0.00  0.00    +0.030 C 
BRANCH   5   7
ATOM      7  C   ALA A   2      49.197  18.402  31.163  0.00  0.00    +0.227 C 
ATOM      8  O   ALA A   2      49.044  17.204  30.891  0.00  0.00    -0.286 OA
ENDBRANCH   5   7
ENDBRANCH   3   5
BRANCH   1   9
ATOM      9  CA  MET A   1      48.979  20.803  34.789  0.00  0.00    +0.146 C 
BRANCH   9  10
ATOM     10  N   MET A   1      49.683  21.930  34.199  0.00  0.00    -0.238 NA
ATOM     11  H   MET A   1      49.216  22.856  34.123  0.00  0.00    +0.142 HD
ENDBRANCH   9  10
BRANCH   9  12
ATOM     12  CB  MET A   1      47.809  21.261  35.667  0.00  0.00    +0.038 C 
BRANCH  12  13
ATOM     13  CG  MET A   1      48.167  22.270  36.724  0.00  0.00    +0.060 C 
BRANCH  13  14
ATOM     14  SD  MET A   1      49.441  21.718  37.893  0.00  0.00    -0.139 S 
ATOM     15  CE  MET A   1      48.499  20.567  38.911  0.00  0.00    +0.069 C 
ENDBRANCH  13  14
ENDBRANCH  12  13
ENDBRANCH   9  12
ENDBRANCH   1   9
TORSDOF 7
REMARK  Name = ../refined-set-2016/4eky/4eky_pocket.pdb
REMARK  279 active torsions:
REMARK  status: ('A' for Active; 'I' for Inactive)
REMARK    1  A    between atoms: _1  and  _3
REMARK    2  A    between atoms: _3  and  _4
REMARK    3  A    between atoms: _3  and  _6
REMARK    4  A    between atoms: _6  and  _7
REMARK    5  A    between atoms: _12  and  _13
REMARK    6  A    between atoms: _15  and  _17
REMARK    7  A    between atoms: _17  and  _18
REMARK    8  A    between atoms: _17  and  _20
REMARK    9  A    between atoms: _20  and  _21
REMARK   10  A    between atoms: _21  and  _22
REMARK   11  A    between atoms: _25  and  _27
REMARK   12  A    between atoms: _27  and  _28
REMARK   13  A    between atoms: _27  and  _30
REMARK   14  A    between atoms: _30  and  _31
REMARK   15  A    between atoms: _36  and  _37
REMARK   16  A    between atoms: _39  and  _41
REMARK   17  A    between atoms: _41  and  _42
REMARK   18  A    between atoms: _41  and  _44
REMARK   19  A    between atoms: _44  and  _45
REMARK   20  A    between atoms: _50  and  _52
REMARK   21  A    between atoms: _52  and  _53
REMARK   22  A    between atoms: _55  and  _57
REMARK   23  A    between atoms: _57  and  _58
REMARK   24  A    between atoms: _60  and  _62
REMARK   25  A    between atoms: _62  and  _63
REMARK   26  A    between atoms: _62  and  _65
REMARK   27  A    between atoms: _65  and  _66
REMARK   28  A    between atoms: _69  and  _71
REMARK   29  A    between atoms: _71  and  _72
REMARK   30  A    between atoms: _74  and  _76
REMARK   31  A    between atoms: _76  and  _77
REMARK   32  A    between atoms: _76  and  _79
REMARK   33  A    between atoms: _79  and  _80
REMARK   34  A    between atoms: _80  and  _81
REMARK   35  A    between atoms: _81  and  _82
REMARK   36  A    between atoms: _91  and  _93
REMARK   37  A    between atoms: _93  and  _94
REMARK   38  A    between atoms: _93  and  _96
REMARK   39  A    between atoms: _96  and  _97
REMARK   40  A    between atoms: _100  and  _102
REMARK   41  A    between atoms: _102  and  _103
REMARK   42  A    between atoms: _106  and  _108
REMARK   43  A    between atoms: _108  and  _109
REMARK   44  A    between atoms: _108  and  _111
REMARK   45  A    between atoms: _111  and  _112
REMARK   46  A    between atoms: _118  and  _120
REMARK   47  A    between atoms: _120  and  _121
REMARK   48  A    between atoms: _120  and  _123
REMARK   49  A    between atoms: _123  and  _124
REMARK   50  A    between atoms: _129  and  _131
REMARK   51  A    between atoms: _131  and  _132
REMARK   52  A    between atoms: _131  and  _134
REMARK   53  A    between atoms: _134  and  _135
REMARK   54  A    between atoms: _138  and  _140
REMARK   55  A    between atoms: _140  and  _141
REMARK   56  A    between atoms: _140  and  _143
REMARK   57  A    between atoms: _143  and  _144
REMARK   58  A    between atoms: _149  and  _151
REMARK   59  A    between atoms: _151  and  _152
REMARK   60  A    between atoms: _151  and  _154
REMARK   61  A    between atoms: _154  and  _155
REMARK   62  A    between atoms: _161  and  _163
REMARK   63  A    between atoms: _163  and  _164
REMARK   64  A    between atoms: _163  and  _166
REMARK   65  A    between atoms: _166  and  _167
REMARK   66  A    between atoms: _173  and  _175
REMARK   67  A    between atoms: _175  and  _176
REMARK   68  A    between atoms: _175  and  _178
REMARK   69  A    between atoms: _178  and  _179
REMARK   70  A    between atoms: _179  and  _180
REMARK   71  A    between atoms: _180  and  _181
REMARK   72  A    between atoms: _190  and  _192
REMARK   73  A    between atoms: _192  and  _193
REMARK   74  A    between atoms: _192  and  _195
REMARK   75  A    between atoms: _195  and  _196
REMARK   76  A    between atoms: _196  and  _197
REMARK   77  A    between atoms: _200  and  _202
REMARK   78  A    between atoms: _202  and  _203
REMARK   79  A    between atoms: _202  and  _205
REMARK   80  A    between atoms: _205  and  _206
REMARK   81  A    between atoms: _211  and  _213
REMARK   82  A    between atoms: _213  and  _214
REMARK   83  A    between atoms: _213  and  _216
REMARK   84  A    between atoms: _216  and  _217
REMARK   85  A    between atoms: _220  and  _222
REMARK   86  A    between atoms: _222  and  _223
REMARK   87  A    between atoms: _222  and  _225
REMARK   88  A    between atoms: _225  and  _226
REMARK   89  A    between atoms: _229  and  _231
REMARK   90  A    between atoms: _231  and  _232
REMARK   91  A    between atoms: _231  and  _234
REMARK   92  A    between atoms: _234  and  _235
REMARK   93  A    between atoms: _241  and  _242
REMARK   94  A    between atoms: _247  and  _249
REMARK   95  A    between atoms: _249  and  _250
REMARK   96  A    between atoms: _249  and  _252
REMARK   97  A    between atoms: _252  and  _253
REMARK   98  A    between atoms: _258  and  _259
REMARK   99  A    between atoms: _261  and  _263
REMARK  100  A    between atoms: _263  and  _264
REMARK  101  A    between atoms: _263  and  _266
REMARK  102  A    between atoms: _266  and  _267
REMARK  103  A    between atoms: _270  and  _272
REMARK  104  A    between atoms: _272  and  _273
REMARK  105  A    between atoms: _272  and  _275
REMARK  106  A    between atoms: _275  and  _276
REMARK  107  A    between atoms: _281  and  _283
REMARK  108  A    between atoms: _283  and  _284
REMARK  109  A    between atoms: _283  and  _286
REMARK  110  A    between atoms: _286  and  _287
REMARK  111  A    between atoms: _292  and  _294
REMARK  112  A    between atoms: _294  and  _295
REMARK  113  A    between atoms: _294  and  _297
REMARK  114  A    between atoms: _297  and  _298
REMARK  115  A    between atoms: _301  and  _303
REMARK  116  A    between atoms: _303  and  _304
REMARK  117  A    between atoms: _303  and  _306
REMARK  118  A    between atoms: _309  and  _311
REMARK  119  A    between atoms: _311  and  _312
REMARK  120  A    between atoms: _311  and  _314
REMARK  121  A    between atoms: _314  and  _315
REMARK  122  A    between atoms: _319  and  _320
REMARK  123  A    between atoms: _325  and  _327
REMARK  124  A    between atoms: _327  and  _328
REMARK  125  A    between atoms: _327  and  _330
REMARK  126  A    between atoms: _330  and  _331
REMARK  127  A    between atoms: _331  and  _332
REMARK  128  A    between atoms: _335  and  _337
REMARK  129  A    between atoms: _337  and  _338
REMARK  130  A    between atoms: _341  and  _343
REMARK  131  A    between atoms: _343  and  _344
REMARK  132  A    between atoms: _343  and  _346
REMARK  133  A    between atoms: _346  and  _347
REMARK  134  A    between atoms: _350  and  _352
REMARK  135  A    between atoms: _352  and  _353
REMARK  136  A    between atoms: _352  and  _355
REMARK  137  A    between atoms: _355  and  _356
REMARK  138  A    between atoms: _356  and  _357
REMARK  139  A    between atoms: _360  and  _362
REMARK  140  A    between atoms: _362  and  _363
REMARK  141  A    between atoms: _362  and  _365
REMARK  142  A    between atoms: _365  and  _366
REMARK  143  A    between atoms: _366  and  _367
REMARK  144  A    between atoms: _369  and  _371
REMARK  145  A    between atoms: _371  and  _372
REMARK  146  A    between atoms: _375  and  _377
REMARK  147  A    between atoms: _377  and  _378
REMARK  148  A    between atoms: _377  and  _380
REMARK  149  A    between atoms: _380  and  _381
REMARK  150  A    between atoms: _386  and  _388
REMARK  151  A    between atoms: _388  and  _389
REMARK  152  A    between atoms: _391  and  _393
REMARK  153  A    between atoms: _393  and  _394
REMARK  154  A    between atoms: _393  and  _396
REMARK  155  A    between atoms: _399  and  _401
REMARK  156  A    between atoms: _401  and  _402
REMARK  157  A    between atoms: _405  and  _407
REMARK  158  A    between atoms: _407  and  _408
REMARK  159  A    between atoms: _407  and  _410
REMARK  160  A    between atoms: _410  and  _411
REMARK  161  A    between atoms: _416  and  _418
REMARK  162  A    between atoms: _418  and  _419
REMARK  163  A    between atoms: _418  and  _421
REMARK  164  A    between atoms: _421  and  _422
REMARK  165  A    between atoms: _428  and  _430
REMARK  166  A    between atoms: _430  and  _431
REMARK  167  A    between atoms: _430  and  _433
REMARK  168  A    between atoms: _433  and  _434
REMARK  169  A    between atoms: _434  and  _435
REMARK  170  A    between atoms: _435  and  _436
REMARK  171  A    between atoms: _436  and  _437
REMARK  172  A    between atoms: _441  and  _443
REMARK  173  A    between atoms: _443  and  _444
REMARK  174  A    between atoms: _443  and  _446
REMARK  175  A    between atoms: _446  and  _447
REMARK  176  A    between atoms: _450  and  _452
REMARK  177  A    between atoms: _452  and  _453
REMARK  178  A    between atoms: _452  and  _455
REMARK  179  A    between atoms: _455  and  _456
REMARK  180  A    between atoms: _461  and  _463
REMARK  181  A    between atoms: _463  and  _464
REMARK  182  A    between atoms: _466  and  _468
REMARK  183  A    between atoms: _468  and  _469
REMARK  184  A    between atoms: _468  and  _471
REMARK  185  A    between atoms: _471  and  _472
REMARK  186  A    between atoms: _475  and  _477
REMARK  187  A    between atoms: _477  and  _478
REMARK  188  A    between atoms: _477  and  _480
REMARK  189  A    between atoms: _480  and  _481
REMARK  190  A    between atoms: _481  and  _482
REMARK  191  A    between atoms: _482  and  _483
REMARK  192  A    between atoms: _483  and  _484
REMARK  193  A    between atoms: _488  and  _490
REMARK  194  A    between atoms: _490  and  _491
REMARK  195  A    between atoms: _490  and  _493
REMARK  196  A    between atoms: _493  and  _494
REMARK  197  A    between atoms: _494  and  _495
REMARK  198  A    between atoms: _495  and  _496
REMARK  199  A    between atoms: _505  and  _507
REMARK  200  A    between atoms: _507  and  _508
REMARK  201  A    between atoms: _507  and  _510
REMARK  202  A    between atoms: _510  and  _511
REMARK  203  A    between atoms: _516  and  _518
REMARK  204  A    between atoms: _518  and  _519
REMARK  205  A    between atoms: _518  and  _521
REMARK  206  A    between atoms: _521  and  _522
REMARK  207  A    between atoms: _527  and  _528
REMARK  208  A    between atoms: _530  and  _532
REMARK  209  A    between atoms: _532  and  _533
REMARK  210  A    between atoms: _532  and  _535
REMARK  211  A    between atoms: _535  and  _536
REMARK  212  A    between atoms: _536  and  _537
REMARK  213  A    between atoms: _537  and  _538
REMARK  214  A    between atoms: _538  and  _539
REMARK  215  A    between atoms: _543  and  _545
REMARK  216  A    between atoms: _545  and  _546
REMARK  217  A    between atoms: _545  and  _548
REMARK  218  A    between atoms: _548  and  _549
REMARK  219  A    between atoms: _551  and  _553
REMARK  220  A    between atoms: _553  and  _554
REMARK  221  A    between atoms: _553  and  _556
REMARK  222  A    between atoms: _556  and  _557
REMARK  223  A    between atoms: _560  and  _562
REMARK  224  A    between atoms: _562  and  _563
REMARK  225  A    between atoms: _562  and  _565
REMARK  226  A    between atoms: _565  and  _566
REMARK  227  A    between atoms: _566  and  _567
REMARK  228  A    between atoms: _570  and  _572
REMARK  229  A    between atoms: _572  and  _573
REMARK  230  A    between atoms: _576  and  _578
REMARK  231  A    between atoms: _578  and  _579
REMARK  232  A    between atoms: _578  and  _581
REMARK  233  A    between atoms: _581  and  _582
REMARK  234  A    between atoms: _584  and  _586
REMARK  235  A    between atoms: _586  and  _587
REMARK  236  A    between atoms: _589  and  _591
REMARK  237  A    between atoms: _591  and  _592
REMARK  238  A    between atoms: _591  and  _594
REMARK  239  A    between atoms: _594  and  _595
REMARK  240  A    between atoms: _598  and  _600
REMARK  241  A    between atoms: _600  and  _601
REMARK  242  A    between atoms: _603  and  _605
REMARK  243  A    between atoms: _605  and  _606
REMARK  244  A    between atoms: _605  and  _608
REMARK  245  A    between atoms: _608  and  _609
REMARK  246  A    between atoms: _614  and  _616
REMARK  247  A    between atoms: _616  and  _617
REMARK  248  A    between atoms: _616  and  _619
REMARK  249  A    between atoms: _619  and  _620
REMARK  250  A    between atoms: _620  and  _621
REMARK  251  A    between atoms: _628  and  _629
REMARK  252  A    between atoms: _629  and  _645
REMARK  253  A    between atoms: _630  and  _632
REMARK  254  A    between atoms: _632  and  _633
REMARK  255  A    between atoms: _633  and  _634
REMARK  256  A    between atoms: _638  and  _640
REMARK  257  A    between atoms: _640  and  _641
REMARK  258  A    between atoms: _640  and  _648
REMARK  259  A    between atoms: _641  and  _642
REMARK  260  A    between atoms: _642  and  _643
REMARK  261  A    between atoms: _643  and  _644
REMARK  262  A    between atoms: _644  and  _645
REMARK  263  A    between atoms: _650  and  _652
REMARK  264  A    between atoms: _652  and  _653
REMARK  265  A    between atoms: _652  and  _655
REMARK  266  A    between atoms: _655  and  _656
REMARK  267  A    between atoms: _659  and  _661
REMARK  268  A    between atoms: _661  and  _662
REMARK  269  A    between atoms: _664  and  _666
REMARK  270  A    between atoms: _666  and  _667
REMARK  271  A    between atoms: _670  and  _672
REMARK  272  A    between atoms: _672  and  _673
REMARK  273  A    between atoms: _672  and  _675
REMARK  274  A    between atoms: _675  and  _676
REMARK  275  A    between atoms: _679  and  _681
REMARK  276  A    between atoms: _681  and  _682
REMARK  277  A    between atoms: _681  and  _684
REMARK  278  A    between atoms: _684  and  _685
REMARK  279  A    between atoms: _690  and  _691
REMARK                            x       y       z     vdW  Elec       q    Type
REMARK                         _______ _______ _______ _____ _____    ______ ____
ROOT
ATOM      1  C   GLY A   2      37.813  14.540  23.517  0.00  0.00    +0.243 C 
ATOM      2  O   GLY A   2      37.430  13.403  23.773  0.00  0.00    -0.273 OA
ATOM      3  N   VAL A   3      36.974  15.509  23.194  0.00  0.00    -0.297 N 
ATOM      4  H   VAL A   3      37.324  16.367  22.722  0.00  0.00    +0.150 HD
ENDROOT
BRANCH   1   5
ATOM      5  CA  GLY A   2      39.292  14.900  23.566  0.00  0.00    +0.176 C 
BRANCH   5   8
ATOM      6  C   ASN A   1      40.399  13.376  25.105  0.00  0.00    +0.239 C 
ATOM      7  O   ASN A   1      40.295  14.149  26.065  0.00  0.00    -0.274 OA
ATOM      8  N   GLY A   2      40.083  13.712  23.858  0.00  0.00    -0.296 N 
ATOM      9  H   GLY A   2      40.408  13.113  23.073  0.00  0.00    +0.150 HD
BRANCH   6  10
ATOM     10  CA  ASN A   1      40.935  11.956  25.293  0.00  0.00    +0.154 C 
BRANCH  10  11
ATOM     11  N   ASN A   1      41.957  11.857  26.326  0.00  0.00    -0.238 NA
ATOM     12  H   ASN A   1      41.828  12.365  27.224  0.00  0.00    +0.142 HD
ENDBRANCH  10  11
BRANCH  10  13
ATOM     13  CB  ASN A   1      39.763  10.958  25.519  0.00  0.00    +0.111 C 
BRANCH  13  14
ATOM     14  CG  ASN A   1      38.826  11.366  26.649  0.00  0.00    +0.221 C 
ATOM     15  OD1 ASN A   1      39.161  11.206  27.827  0.00  0.00    -0.275 OA
ATOM     16  ND2 ASN A   1      37.621  11.861  26.295  0.00  0.00    -0.329 N 
ATOM     17 HD21 ASN A   1      36.932  12.125  27.028  0.00  0.00    +0.145 HD
ATOM     18 HD22 ASN A   1      37.382  11.979  25.290  0.00  0.00    +0.145 HD
ENDBRANCH  13  14
ENDBRANCH  10  13
ENDBRANCH   6  10
ENDBRANCH   5   8
ENDBRANCH   1   5
BRANCH   3  19
ATOM     19  CA  VAL A   3      35.535  15.368  23.506  0.00  0.00    +0.149 C 
BRANCH  19  20
ATOM     20  C   VAL A   3      34.688  15.456  22.218  0.00  0.00    +0.241 C 
ATOM     21  O   VAL A   3      33.445  15.499  22.251  0.00  0.00    -0.273 OA
ATOM     22  N   ALA A   4      35.399  15.436  21.090  0.00  0.00    -0.298 N 
ATOM     23  H   ALA A   4      36.433  15.525  21.157  0.00  0.00    +0.150 HD
BRANCH  22  24
ATOM     24  CA  ALA A   4      34.803  15.296  19.774  0.00  0.00    +0.137 C 
ATOM     25  CB  ALA A   4      33.985  16.557  19.353  0.00  0.00    +0.030 C 
BRANCH  24  26
ATOM     26  C   ALA A   4      35.955  15.069  18.826  0.00  0.00    +0.227 C 
ATOM     27  O   ALA A   4      37.129  15.446  19.097  0.00  0.00    -0.286 OA
ENDBRANCH  24  26
ENDBRANCH  22  24
ENDBRANCH  19  20
BRANCH  19  28
ATOM     28  CB  VAL A   3      35.083  16.335  24.635  0.00  0.00    +0.027 C 
ATOM     29  CG2 VAL A   3      35.616  15.870  26.018  0.00  0.00    +0.002 C 
ATOM     30  CG1 VAL A   3      35.475  17.840  24.340  0.00  0.00    +0.002 C 
ENDBRANCH  19  28
ENDBRANCH   3  19
TORSDOF 11
REMARK  Name = ../refined-set-2016/4eky/4eky_pocket.pdb
REMARK  279 active torsions:
REMARK  status: ('A' for Active; 'I' for Inactive)
REMARK    1  A    between atoms: _1  and  _3
REMARK    2  A    between atoms: _3  and  _4
REMARK    3  A    between atoms: _3  and  _6
REMARK    4  A    between atoms: _6  and  _7
REMARK    5  A    between atoms: _12  and  _13
REMARK    6  A    between atoms: _15  and  _17
REMARK    7  A    between atoms: _17  and  _18
REMARK    8  A    between atoms: _17  and  _20
REMARK    9  A    between atoms: _20  and  _21
REMARK   10  A    between atoms: _21  and  _22
REMARK   11  A    between atoms: _25  and  _27
REMARK   12  A    between atoms: _27  and  _28
REMARK   13  A    between atoms: _27  and  _30
REMARK   14  A    between atoms: _30  and  _31
REMARK   15  A    between atoms: _36  and  _37
REMARK   16  A    between atoms: _39  and  _41
REMARK   17  A    between atoms: _41  and  _42
REMARK   18  A    between atoms: _41  and  _44
REMARK   19  A    between atoms: _44  and  _45
REMARK   20  A    between atoms: _50  and  _52
REMARK   21  A    between atoms: _52  and  _53
REMARK   22  A    between atoms: _55  and  _57
REMARK   23  A    between atoms: _57  and  _58
REMARK   24  A    between atoms: _60  and  _62
REMARK   25  A    between atoms: _62  and  _63
REMARK   26  A    between atoms: _62  and  _65
REMARK   27  A    between atoms: _65  and  _66
REMARK   28  A    between atoms: _69  and  _71
REMARK   29  A    between atoms: _71  and  _72
REMARK   30  A    between atoms: _74  and  _76
REMARK   31  A    between atoms: _76  and  _77
REMARK   32  A    between atoms: _76  and  _79
REMARK   33  A    between atoms: _79  and  _80
REMARK   34  A    between atoms: _80  and  _81
REMARK   35  A    between atoms: _81  and  _82
REMARK   36  A    between atoms: _91  and  _93
REMARK   37  A    between atoms: _93  and  _94
REMARK   38  A    between atoms: _93  and  _96
REMARK   39  A    between atoms: _96  and  _97
REMARK   40  A    between atoms: _100  and  _102
REMARK   41  A    between atoms: _102  and  _103
REMARK   42  A    between atoms: _106  and  _108
REMARK   43  A    between atoms: _108  and  _109
REMARK   44  A    between atoms: _108  and  _111
REMARK   45  A    between atoms: _111  and  _112
REMARK   46  A    between atoms: _118  and  _120
REMARK   47  A    between atoms: _120  and  _121
REMARK   48  A    between atoms: _120  and  _123
REMARK   49  A    between atoms: _123  and  _124
REMARK   50  A    between atoms: _129  and  _131
REMARK   51  A    between atoms: _131  and  _132
REMARK   52  A    between atoms: _131  and  _134
REMARK   53  A    between atoms: _134  and  _135
REMARK   54  A    between atoms: _138  and  _140
REMARK   55  A    between atoms: _140  and  _141
REMARK   56  A    between atoms: _140  and  _143
REMARK   57  A    between atoms: _143  and  _144
REMARK   58  A    between atoms: _149  and  _151
REMARK   59  A    between atoms: _151  and  _152
REMARK   60  A    between atoms: _151  and  _154
REMARK   61  A    between atoms: _154  and  _155
REMARK   62  A    between atoms: _161  and  _163
REMARK   63  A    between atoms: _163  and  _164
REMARK   64  A    between atoms: _163  and  _166
REMARK   65  A    between atoms: _166  and  _167
REMARK   66  A    between atoms: _173  and  _175
REMARK   67  A    between atoms: _175  and  _176
REMARK   68  A    between atoms: _175  and  _178
REMARK   69  A    between atoms: _178  and  _179
REMARK   70  A    between atoms: _179  and  _180
REMARK   71  A    between atoms: _180  and  _181
REMARK   72  A    between atoms: _190  and  _192
REMARK   73  A    between atoms: _192  and  _193
REMARK   74  A    between atoms: _192  and  _195
REMARK   75  A    between atoms: _195  and  _196
REMARK   76  A    between atoms: _196  and  _197
REMARK   77  A    between atoms: _200  and  _202
REMARK   78  A    between atoms: _202  and  _203
REMARK   79  A    between atoms: _202  and  _205
REMARK   80  A    between atoms: _205  and  _206
REMARK   81  A    between atoms: _211  and  _213
REMARK   82  A    between atoms: _213  and  _214
REMARK   83  A    between atoms: _213  and  _216
REMARK   84  A    between atoms: _216  and  _217
REMARK   85  A    between atoms: _220  and  _222
REMARK   86  A    between atoms: _222  and  _223
REMARK   87  A    between atoms: _222  and  _225
REMARK   88  A    between atoms: _225  and  _226
REMARK   89  A    between atoms: _229  and  _231
REMARK   90  A    between atoms: _231  and  _232
REMARK   91  A    between atoms: _231  and  _234
REMARK   92  A    between atoms: _234  and  _235
REMARK   93  A    between atoms: _241  and  _242
REMARK   94  A    between atoms: _247  and  _249
REMARK   95  A    between atoms: _249  and  _250
REMARK   96  A    between atoms: _249  and  _252
REMARK   97  A    between atoms: _252  and  _253
REMARK   98  A    between atoms: _258  and  _259
REMARK   99  A    between atoms: _261  and  _263
REMARK  100  A    between atoms: _263  and  _264
REMARK  101  A    between atoms: _263  and  _266
REMARK  102  A    between atoms: _266  and  _267
REMARK  103  A    between atoms: _270  and  _272
REMARK  104  A    between atoms: _272  and  _273
REMARK  105  A    between atoms: _272  and  _275
REMARK  106  A    between atoms: _275  and  _276
REMARK  107  A    between atoms: _281  and  _283
REMARK  108  A    between atoms: _283  and  _284
REMARK  109  A    between atoms: _283  and  _286
REMARK  110  A    between atoms: _286  and  _287
REMARK  111  A    between atoms: _292  and  _294
REMARK  112  A    between atoms: _294  and  _295
REMARK  113  A    between atoms: _294  and  _297
REMARK  114  A    between atoms: _297  and  _298
REMARK  115  A    between atoms: _301  and  _303
REMARK  116  A    between atoms: _303  and  _304
REMARK  117  A    between atoms: _303  and  _306
REMARK  118  A    between atoms: _309  and  _311
REMARK  119  A    between atoms: _311  and  _312
REMARK  120  A    between atoms: _311  and  _314
REMARK  121  A    between atoms: _314  and  _315
REMARK  122  A    between atoms: _319  and  _320
REMARK  123  A    between atoms: _325  and  _327
REMARK  124  A    between atoms: _327  and  _328
REMARK  125  A    between atoms: _327  and  _330
REMARK  126  A    between atoms: _330  and  _331
REMARK  127  A    between atoms: _331  and  _332
REMARK  128  A    between atoms: _335  and  _337
REMARK  129  A    between atoms: _337  and  _338
REMARK  130  A    between atoms: _341  and  _343
REMARK  131  A    between atoms: _343  and  _344
REMARK  132  A    between atoms: _343  and  _346
REMARK  133  A    between atoms: _346  and  _347
REMARK  134  A    between atoms: _350  and  _352
REMARK  135  A    between atoms: _352  and  _353
REMARK  136  A    between atoms: _352  and  _355
REMARK  137  A    between atoms: _355  and  _356
REMARK  138  A    between atoms: _356  and  _357
REMARK  139  A    between atoms: _360  and  _362
REMARK  140  A    between atoms: _362  and  _363
REMARK  141  A    between atoms: _362  and  _365
REMARK  142  A    between atoms: _365  and  _366
REMARK  143  A    between atoms: _366  and  _367
REMARK  144  A    between atoms: _369  and  _371
REMARK  145  A    between atoms: _371  and  _372
REMARK  146  A    between atoms: _375  and  _377
REMARK  147  A    between atoms: _377  and  _378
REMARK  148  A    between atoms: _377  and  _380
REMARK  149  A    between atoms: _380  and  _381
REMARK  150  A    between atoms: _386  and  _388
REMARK  151  A    between atoms: _388  and  _389
REMARK  152  A    between atoms: _391  and  _393
REMARK  153  A    between atoms: _393  and  _394
REMARK  154  A    between atoms: _393  and  _396
REMARK  155  A    between atoms: _399  and  _401
REMARK  156  A    between atoms: _401  and  _402
REMARK  157  A    between atoms: _405  and  _407
REMARK  158  A    between atoms: _407  and  _408
REMARK  159  A    between atoms: _407  and  _410
REMARK  160  A    between atoms: _410  and  _411
REMARK  161  A    between atoms: _416  and  _418
REMARK  162  A    between atoms: _418  and  _419
REMARK  163  A    between atoms: _418  and  _421
REMARK  164  A    between atoms: _421  and  _422
REMARK  165  A    between atoms: _428  and  _430
REMARK  166  A    between atoms: _430  and  _431
REMARK  167  A    between atoms: _430  and  _433
REMARK  168  A    between atoms: _433  and  _434
REMARK  169  A    between atoms: _434  and  _435
REMARK  170  A    between atoms: _435  and  _436
REMARK  171  A    between atoms: _436  and  _437
REMARK  172  A    between atoms: _441  and  _443
REMARK  173  A    between atoms: _443  and  _444
REMARK  174  A    between atoms: _443  and  _446
REMARK  175  A    between atoms: _446  and  _447
REMARK  176  A    between atoms: _450  and  _452
REMARK  177  A    between atoms: _452  and  _453
REMARK  178  A    between atoms: _452  and  _455
REMARK  179  A    between atoms: _455  and  _456
REMARK  180  A    between atoms: _461  and  _463
REMARK  181  A    between atoms: _463  and  _464
REMARK  182  A    between atoms: _466  and  _468
REMARK  183  A    between atoms: _468  and  _469
REMARK  184  A    between atoms: _468  and  _471
REMARK  185  A    between atoms: _471  and  _472
REMARK  186  A    between atoms: _475  and  _477
REMARK  187  A    between atoms: _477  and  _478
REMARK  188  A    between atoms: _477  and  _480
REMARK  189  A    between atoms: _480  and  _481
REMARK  190  A    between atoms: _481  and  _482
REMARK  191  A    between atoms: _482  and  _483
REMARK  192  A    between atoms: _483  and  _484
REMARK  193  A    between atoms: _488  and  _490
REMARK  194  A    between atoms: _490  and  _491
REMARK  195  A    between atoms: _490  and  _493
REMARK  196  A    between atoms: _493  and  _494
REMARK  197  A    between atoms: _494  and  _495
REMARK  198  A    between atoms: _495  and  _496
REMARK  199  A    between atoms: _505  and  _507
REMARK  200  A    between atoms: _507  and  _508
REMARK  201  A    between atoms: _507  and  _510
REMARK  202  A    between atoms: _510  and  _511
REMARK  203  A    between atoms: _516  and  _518
REMARK  204  A    between atoms: _518  and  _519
REMARK  205  A    between atoms: _518  and  _521
REMARK  206  A    between atoms: _521  and  _522
REMARK  207  A    between atoms: _527  and  _528
REMARK  208  A    between atoms: _530  and  _532
REMARK  209  A    between atoms: _532  and  _533
REMARK  210  A    between atoms: _532  and  _535
REMARK  211  A    between atoms: _535  and  _536
REMARK  212  A    between atoms: _536  and  _537
REMARK  213  A    between atoms: _537  and  _538
REMARK  214  A    between atoms: _538  and  _539
REMARK  215  A    between atoms: _543  and  _545
REMARK  216  A    between atoms: _545  and  _546
REMARK  217  A    between atoms: _545  and  _548
REMARK  218  A    between atoms: _548  and  _549
REMARK  219  A    between atoms: _551  and  _553
REMARK  220  A    between atoms: _553  and  _554
REMARK  221  A    between atoms: _553  and  _556
REMARK  222  A    between atoms: _556  and  _557
REMARK  223  A    between atoms: _560  and  _562
REMARK  224  A    between atoms: _562  and  _563
REMARK  225  A    between atoms: _562  and  _565
REMARK  226  A    between atoms: _565  and  _566
REMARK  227  A    between atoms: _566  and  _567
REMARK  228  A    between atoms: _570  and  _572
REMARK  229  A    between atoms: _572  and  _573
REMARK  230  A    between atoms: _576  and  _578
REMARK  231  A    between atoms: _578  and  _579
REMARK  232  A    between atoms: _578  and  _581
REMARK  233  A    between atoms: _581  and  _582
REMARK  234  A    between atoms: _584  and  _586
REMARK  235  A    between atoms: _586  and  _587
REMARK  236  A    between atoms: _589  and  _591
REMARK  237  A    between atoms: _591  and  _592
REMARK  238  A    between atoms: _591  and  _594
REMARK  239  A    between atoms: _594  and  _595
REMARK  240  A    between atoms: _598  and  _600
REMARK  241  A    between atoms: _600  and  _601
REMARK  242  A    between atoms: _603  and  _605
REMARK  243  A    between atoms: _605  and  _606
REMARK  244  A    between atoms: _605  and  _608
REMARK  245  A    between atoms: _608  and  _609
REMARK  246  A    between atoms: _614  and  _616
REMARK  247  A    between atoms: _616  and  _617
REMARK  248  A    between atoms: _616  and  _619
REMARK  249  A    between atoms: _619  and  _620
REMARK  250  A    between atoms: _620  and  _621
REMARK  251  A    between atoms: _628  and  _629
REMARK  252  A    between atoms: _629  and  _645
REMARK  253  A    between atoms: _630  and  _632
REMARK  254  A    between atoms: _632  and  _633
REMARK  255  A    between atoms: _633  and  _634
REMARK  256  A    between atoms: _638  and  _640
REMARK  257  A    between atoms: _640  and  _641
REMARK  258  A    between atoms: _640  and  _648
REMARK  259  A    between atoms: _641  and  _642
REMARK  260  A    between atoms: _642  and  _643
REMARK  261  A    between atoms: _643  and  _644
REMARK  262  A    between atoms: _644  and  _645
REMARK  263  A    between atoms: _650  and  _652
REMARK  264  A    between atoms: _652  and  _653
REMARK  265  A    between atoms: _652  and  _655
REMARK  266  A    between atoms: _655  and  _656
REMARK  267  A    between atoms: _659  and  _661
REMARK  268  A    between atoms: _661  and  _662
REMARK  269  A    between atoms: _664  and  _666
REMARK  270  A    between atoms: _666  and  _667
REMARK  271  A    between atoms: _670  and  _672
REMARK  272  A    between atoms: _672  and  _673
REMARK  273  A    between atoms: _672  and  _675
REMARK  274  A    between atoms: _675  and  _676
REMARK  275  A    between atoms: _679  and  _681
REMARK  276  A    between atoms: _681  and  _682
REMARK  277  A    between atoms: _681  and  _684
REMARK  278  A    between atoms: _684  and  _685
REMARK  279  A    between atoms: _690  and  _691
REMARK                            x       y       z     vdW  Elec       q    Type
REMARK                         _______ _______ _______ _____ _____    ______ ____
ROOT
ATOM      1  CB  HIS A   1      37.955  18.470  20.051  0.00  0.00    +0.072 C 
ENDROOT
BRANCH   1   2
ATOM      2  CG  HIS A   1      38.641  18.679  21.369  0.00  0.00    +0.082 A 
ATOM      3  CD2 HIS A   1      38.571  17.989  22.530  0.00  0.00    +0.115 A 
ATOM      4  NE2 HIS A   1      39.376  18.640  23.439  0.00  0.00    -0.221 NA
ATOM      5  CE1 HIS A   1      39.955  19.666  22.841  0.00  0.00    +0.199 A 
ATOM      6  ND1 HIS A   1      39.534  19.712  21.589  0.00  0.00    -0.227 NA
ENDBRANCH   1   2
BRANCH   1   7
ATOM      7  CA  HIS A   1      38.923  18.379  18.876  0.00  0.00    +0.139 C 
BRANCH   7   8
ATOM      8  N   HIS A   1      38.218  17.975  17.704  0.00  0.00    -0.239 NA
ATOM      9  H   HIS A   1      37.196  17.798  17.782  0.00  0.00    +0.142 HD
ENDBRANCH   7   8
BRANCH   7  10
ATOM     10  C   HIS A   1      40.043  17.384  19.203  0.00  0.00    +0.224 C 
ATOM     11  O   HIS A   1      41.182  17.794  19.453  0.00  0.00    -0.287 OA
ENDBRANCH   7  10
ENDBRANCH   1   7
TORSDOF 4
REMARK  Name = ../refined-set-2016/4eky/4eky_pocket.pdb
REMARK  279 active torsions:
REMARK  status: ('A' for Active; 'I' for Inactive)
REMARK    1  A    between atoms: _1  and  _3
REMARK    2  A    between atoms: _3  and  _4
REMARK    3  A    between atoms: _3  and  _6
REMARK    4  A    between atoms: _6  and  _7
REMARK    5  A    between atoms: _12  and  _13
REMARK    6  A    between atoms: _15  and  _17
REMARK    7  A    between atoms: _17  and  _18
REMARK    8  A    between atoms: _17  and  _20
REMARK    9  A    between atoms: _20  and  _21
REMARK   10  A    between atoms: _21  and  _22
REMARK   11  A    between atoms: _25  and  _27
REMARK   12  A    between atoms: _27  and  _28
REMARK   13  A    between atoms: _27  and  _30
REMARK   14  A    between atoms: _30  and  _31
REMARK   15  A    between atoms: _36  and  _37
REMARK   16  A    between atoms: _39  and  _41
REMARK   17  A    between atoms: _41  and  _42
REMARK   18  A    between atoms: _41  and  _44
REMARK   19  A    between atoms: _44  and  _45
REMARK   20  A    between atoms: _50  and  _52
REMARK   21  A    between atoms: _52  and  _53
REMARK   22  A    between atoms: _55  and  _57
REMARK   23  A    between atoms: _57  and  _58
REMARK   24  A    between atoms: _60  and  _62
REMARK   25  A    between atoms: _62  and  _63
REMARK   26  A    between atoms: _62  and  _65
REMARK   27  A    between atoms: _65  and  _66
REMARK   28  A    between atoms: _69  and  _71
REMARK   29  A    between atoms: _71  and  _72
REMARK   30  A    between atoms: _74  and  _76
REMARK   31  A    between atoms: _76  and  _77
REMARK   32  A    between atoms: _76  and  _79
REMARK   33  A    between atoms: _79  and  _80
REMARK   34  A    between atoms: _80  and  _81
REMARK   35  A    between atoms: _81  and  _82
REMARK   36  A    between atoms: _91  and  _93
REMARK   37  A    between atoms: _93  and  _94
REMARK   38  A    between atoms: _93  and  _96
REMARK   39  A    between atoms: _96  and  _97
REMARK   40  A    between atoms: _100  and  _102
REMARK   41  A    between atoms: _102  and  _103
REMARK   42  A    between atoms: _106  and  _108
REMARK   43  A    between atoms: _108  and  _109
REMARK   44  A    between atoms: _108  and  _111
REMARK   45  A    between atoms: _111  and  _112
REMARK   46  A    between atoms: _118  and  _120
REMARK   47  A    between atoms: _120  and  _121
REMARK   48  A    between atoms: _120  and  _123
REMARK   49  A    between atoms: _123  and  _124
REMARK   50  A    between atoms: _129  and  _131
REMARK   51  A    between atoms: _131  and  _132
REMARK   52  A    between atoms: _131  and  _134
REMARK   53  A    between atoms: _134  and  _135
REMARK   54  A    between atoms: _138  and  _140
REMARK   55  A    between atoms: _140  and  _141
REMARK   56  A    between atoms: _140  and  _143
REMARK   57  A    between atoms: _143  and  _144
REMARK   58  A    between atoms: _149  and  _151
REMARK   59  A    between atoms: _151  and  _152
REMARK   60  A    between atoms: _151  and  _154
REMARK   61  A    between atoms: _154  and  _155
REMARK   62  A    between atoms: _161  and  _163
REMARK   63  A    between atoms: _163  and  _164
REMARK   64  A    between atoms: _163  and  _166
REMARK   65  A    between atoms: _166  and  _167
REMARK   66  A    between atoms: _173  and  _175
REMARK   67  A    between atoms: _175  and  _176
REMARK   68  A    between atoms: _175  and  _178
REMARK   69  A    between atoms: _178  and  _179
REMARK   70  A    between atoms: _179  and  _180
REMARK   71  A    between atoms: _180  and  _181
REMARK   72  A    between atoms: _190  and  _192
REMARK   73  A    between atoms: _192  and  _193
REMARK   74  A    between atoms: _192  and  _195
REMARK   75  A    between atoms: _195  and  _196
REMARK   76  A    between atoms: _196  and  _197
REMARK   77  A    between atoms: _200  and  _202
REMARK   78  A    between atoms: _202  and  _203
REMARK   79  A    between atoms: _202  and  _205
REMARK   80  A    between atoms: _205  and  _206
REMARK   81  A    between atoms: _211  and  _213
REMARK   82  A    between atoms: _213  and  _214
REMARK   83  A    between atoms: _213  and  _216
REMARK   84  A    between atoms: _216  and  _217
REMARK   85  A    between atoms: _220  and  _222
REMARK   86  A    between atoms: _222  and  _223
REMARK   87  A    between atoms: _222  and  _225
REMARK   88  A    between atoms: _225  and  _226
REMARK   89  A    between atoms: _229  and  _231
REMARK   90  A    between atoms: _231  and  _232
REMARK   91  A    between atoms: _231  and  _234
REMARK   92  A    between atoms: _234  and  _235
REMARK   93  A    between atoms: _241  and  _242
REMARK   94  A    between atoms: _247  and  _249
REMARK   95  A    between atoms: _249  and  _250
REMARK   96  A    between atoms: _249  and  _252
REMARK   97  A    between atoms: _252  and  _253
REMARK   98  A    between atoms: _258  and  _259
REMARK   99  A    between atoms: _261  and  _263
REMARK  100  A    between atoms: _263  and  _264
REMARK  101  A    between atoms: _263  and  _266
REMARK  102  A    between atoms: _266  and  _267
REMARK  103  A    between atoms: _270  and  _272
REMARK  104  A    between atoms: _272  and  _273
REMARK  105  A    between atoms: _272  and  _275
REMARK  106  A    between atoms: _275  and  _276
REMARK  107  A    between atoms: _281  and  _283
REMARK  108  A    between atoms: _283  and  _284
REMARK  109  A    between atoms: _283  and  _286
REMARK  110  A    between atoms: _286  and  _287
REMARK  111  A    between atoms: _292  and  _294
REMARK  112  A    between atoms: _294  and  _295
REMARK  113  A    between atoms: _294  and  _297
REMARK  114  A    between atoms: _297  and  _298
REMARK  115  A    between atoms: _301  and  _303
REMARK  116  A    between atoms: _303  and  _304
REMARK  117  A    between atoms: _303  and  _306
REMARK  118  A    between atoms: _309  and  _311
REMARK  119  A    between atoms: _311  and  _312
REMARK  120  A    between atoms: _311  and  _314
REMARK  121  A    between atoms: _314  and  _315
REMARK  122  A    between atoms: _319  and  _320
REMARK  123  A    between atoms: _325  and  _327
REMARK  124  A    between atoms: _327  and  _328
REMARK  125  A    between atoms: _327  and  _330
REMARK  126  A    between atoms: _330  and  _331
REMARK  127  A    between atoms: _331  and  _332
REMARK  128  A    between atoms: _335  and  _337
REMARK  129  A    between atoms: _337  and  _338
REMARK  130  A    between atoms: _341  and  _343
REMARK  131  A    between atoms: _343  and  _344
REMARK  132  A    between atoms: _343  and  _346
REMARK  133  A    between atoms: _346  and  _347
REMARK  134  A    between atoms: _350  and  _352
REMARK  135  A    between atoms: _352  and  _353
REMARK  136  A    between atoms: _352  and  _355
REMARK  137  A    between atoms: _355  and  _356
REMARK  138  A    between atoms: _356  and  _357
REMARK  139  A    between atoms: _360  and  _362
REMARK  140  A    between atoms: _362  and  _363
REMARK  141  A    between atoms: _362  and  _365
REMARK  142  A    between atoms: _365  and  _366
REMARK  143  A    between atoms: _366  and  _367
REMARK  144  A    between atoms: _369  and  _371
REMARK  145  A    between atoms: _371  and  _372
REMARK  146  A    between atoms: _375  and  _377
REMARK  147  A    between atoms: _377  and  _378
REMARK  148  A    between atoms: _377  and  _380
REMARK  149  A    between atoms: _380  and  _381
REMARK  150  A    between atoms: _386  and  _388
REMARK  151  A    between atoms: _388  and  _389
REMARK  152  A    between atoms: _391  and  _393
REMARK  153  A    between atoms: _393  and  _394
REMARK  154  A    between atoms: _393  and  _396
REMARK  155  A    between atoms: _399  and  _401
REMARK  156  A    between atoms: _401  and  _402
REMARK  157  A    between atoms: _405  and  _407
REMARK  158  A    between atoms: _407  and  _408
REMARK  159  A    between atoms: _407  and  _410
REMARK  160  A    between atoms: _410  and  _411
REMARK  161  A    between atoms: _416  and  _418
REMARK  162  A    between atoms: _418  and  _419
REMARK  163  A    between atoms: _418  and  _421
REMARK  164  A    between atoms: _421  and  _422
REMARK  165  A    between atoms: _428  and  _430
REMARK  166  A    between atoms: _430  and  _431
REMARK  167  A    between atoms: _430  and  _433
REMARK  168  A    between atoms: _433  and  _434
REMARK  169  A    between atoms: _434  and  _435
REMARK  170  A    between atoms: _435  and  _436
REMARK  171  A    between atoms: _436  and  _437
REMARK  172  A    between atoms: _441  and  _443
REMARK  173  A    between atoms: _443  and  _444
REMARK  174  A    between atoms: _443  and  _446
REMARK  175  A    between atoms: _446  and  _447
REMARK  176  A    between atoms: _450  and  _452
REMARK  177  A    between atoms: _452  and  _453
REMARK  178  A    between atoms: _452  and  _455
REMARK  179  A    between atoms: _455  and  _456
REMARK  180  A    between atoms: _461  and  _463
REMARK  181  A    between atoms: _463  and  _464
REMARK  182  A    between atoms: _466  and  _468
REMARK  183  A    between atoms: _468  and  _469
REMARK  184  A    between atoms: _468  and  _471
REMARK  185  A    between atoms: _471  and  _472
REMARK  186  A    between atoms: _475  and  _477
REMARK  187  A    between atoms: _477  and  _478
REMARK  188  A    between atoms: _477  and  _480
REMARK  189  A    between atoms: _480  and  _481
REMARK  190  A    between atoms: _481  and  _482
REMARK  191  A    between atoms: _482  and  _483
REMARK  192  A    between atoms: _483  and  _484
REMARK  193  A    between atoms: _488  and  _490
REMARK  194  A    between atoms: _490  and  _491
REMARK  195  A    between atoms: _490  and  _493
REMARK  196  A    between atoms: _493  and  _494
REMARK  197  A    between atoms: _494  and  _495
REMARK  198  A    between atoms: _495  and  _496
REMARK  199  A    between atoms: _505  and  _507
REMARK  200  A    between atoms: _507  and  _508
REMARK  201  A    between atoms: _507  and  _510
REMARK  202  A    between atoms: _510  and  _511
REMARK  203  A    between atoms: _516  and  _518
REMARK  204  A    between atoms: _518  and  _519
REMARK  205  A    between atoms: _518  and  _521
REMARK  206  A    between atoms: _521  and  _522
REMARK  207  A    between atoms: _527  and  _528
REMARK  208  A    between atoms: _530  and  _532
REMARK  209  A    between atoms: _532  and  _533
REMARK  210  A    between atoms: _532  and  _535
REMARK  211  A    between atoms: _535  and  _536
REMARK  212  A    between atoms: _536  and  _537
REMARK  213  A    between atoms: _537  and  _538
REMARK  214  A    between atoms: _538  and  _539
REMARK  215  A    between atoms: _543  and  _545
REMARK  216  A    between atoms: _545  and  _546
REMARK  217  A    between atoms: _545  and  _548
REMARK  218  A    between atoms: _548  and  _549
REMARK  219  A    between atoms: _551  and  _553
REMARK  220  A    between atoms: _553  and  _554
REMARK  221  A    between atoms: _553  and  _556
REMARK  222  A    between atoms: _556  and  _557
REMARK  223  A    between atoms: _560  and  _562
REMARK  224  A    between atoms: _562  and  _563
REMARK  225  A    between atoms: _562  and  _565
REMARK  226  A    between atoms: _565  and  _566
REMARK  227  A    between atoms: _566  and  _567
REMARK  228  A    between atoms: _570  and  _572
REMARK  229  A    between atoms: _572  and  _573
REMARK  230  A    between atoms: _576  and  _578
REMARK  231  A    between atoms: _578  and  _579
REMARK  232  A    between atoms: _578  and  _581
REMARK  233  A    between atoms: _581  and  _582
REMARK  234  A    between atoms: _584  and  _586
REMARK  235  A    between atoms: _586  and  _587
REMARK  236  A    between atoms: _589  and  _591
REMARK  237  A    between atoms: _591  and  _592
REMARK  238  A    between atoms: _591  and  _594
REMARK  239  A    between atoms: _594  and  _595
REMARK  240  A    between atoms: _598  and  _600
REMARK  241  A    between atoms: _600  and  _601
REMARK  242  A    between atoms: _603  and  _605
REMARK  243  A    between atoms: _605  and  _606
REMARK  244  A    between atoms: _605  and  _608
REMARK  245  A    between atoms: _608  and  _609
REMARK  246  A    between atoms: _614  and  _616
REMARK  247  A    between atoms: _616  and  _617
REMARK  248  A    between atoms: _616  and  _619
REMARK  249  A    between atoms: _619  and  _620
REMARK  250  A    between atoms: _620  and  _621
REMARK  251  A    between atoms: _628  and  _629
REMARK  252  A    between atoms: _629  and  _645
REMARK  253  A    between atoms: _630  and  _632
REMARK  254  A    between atoms: _632  and  _633
REMARK  255  A    between atoms: _633  and  _634
REMARK  256  A    between atoms: _638  and  _640
REMARK  257  A    between atoms: _640  and  _641
REMARK  258  A    between atoms: _640  and  _648
REMARK  259  A    between atoms: _641  and  _642
REMARK  260  A    between atoms: _642  and  _643
REMARK  261  A    between atoms: _643  and  _644
REMARK  262  A    between atoms: _644  and  _645
REMARK  263  A    between atoms: _650  and  _652
REMARK  264  A    between atoms: _652  and  _653
REMARK  265  A    between atoms: _652  and  _655
REMARK  266  A    between atoms: _655  and  _656
REMARK  267  A    between atoms: _659  and  _661
REMARK  268  A    between atoms: _661  and  _662
REMARK  269  A    between atoms: _664  and  _666
REMARK  270  A    between atoms: _666  and  _667
REMARK  271  A    between atoms: _670  and  _672
REMARK  272  A    between atoms: _672  and  _673
REMARK  273  A    between atoms: _672  and  _675
REMARK  274  A    between atoms: _675  and  _676
REMARK  275  A    between atoms: _679  and  _681
REMARK  276  A    between atoms: _681  and  _682
REMARK  277  A    between atoms: _681  and  _684
REMARK  278  A    between atoms: _684  and  _685
REMARK  279  A    between atoms: _690  and  _691
REMARK                            x       y       z     vdW  Elec       q    Type
REMARK                         _______ _______ _______ _____ _____    ______ ____
ROOT
ATOM      1  CB  PHE A   1      48.808  17.050  23.139  0.00  0.00    +0.051 C 
ENDROOT
BRANCH   1   2
ATOM      2  CG  PHE A   1      48.124  17.691  24.301  0.00  0.00    -0.020 A 
ATOM      3  CD2 PHE A   1      48.765  18.642  25.090  0.00  0.00    -0.004 A 
ATOM      4  CE2 PHE A   1      48.115  19.230  26.168  0.00  0.00    -0.000 A 
ATOM      5  CZ  PHE A   1      46.770  18.835  26.495  0.00  0.00    -0.000 A 
ATOM      6  CE1 PHE A   1      46.132  17.869  25.724  0.00  0.00    -0.000 A 
ATOM      7  CD1 PHE A   1      46.810  17.310  24.629  0.00  0.00    -0.004 A 
ENDBRANCH   1   2
BRANCH   1   8
ATOM      8  CA  PHE A   1      49.898  17.903  22.471  0.00  0.00    +0.137 C 
BRANCH   8   9
ATOM      9  N   PHE A   1      49.352  19.111  21.895  0.00  0.00    -0.239 NA
ATOM     10  H   PHE A   1      48.632  19.051  21.147  0.00  0.00    +0.142 HD
ENDBRANCH   8   9
BRANCH   8  11
ATOM     11  C   PHE A   1      50.660  17.062  21.444  0.00  0.00    +0.224 C 
ATOM     12  O   PHE A   1      50.859  15.845  21.619  0.00  0.00    -0.287 OA
ENDBRANCH   8  11
ENDBRANCH   1   8
TORSDOF 4
REMARK  Name = ../refined-set-2016/4eky/4eky_pocket.pdb
REMARK  279 active torsions:
REMARK  status: ('A' for Active; 'I' for Inactive)
REMARK    1  A    between atoms: _1  and  _3
REMARK    2  A    between atoms: _3  and  _4
REMARK    3  A    between atoms: _3  and  _6
REMARK    4  A    between atoms: _6  and  _7
REMARK    5  A    between atoms: _12  and  _13
REMARK    6  A    between atoms: _15  and  _17
REMARK    7  A    between atoms: _17  and  _18
REMARK    8  A    between atoms: _17  and  _20
REMARK    9  A    between atoms: _20  and  _21
REMARK   10  A    between atoms: _21  and  _22
REMARK   11  A    between atoms: _25  and  _27
REMARK   12  A    between atoms: _27  and  _28
REMARK   13  A    between atoms: _27  and  _30
REMARK   14  A    between atoms: _30  and  _31
REMARK   15  A    between atoms: _36  and  _37
REMARK   16  A    between atoms: _39  and  _41
REMARK   17  A    between atoms: _41  and  _42
REMARK   18  A    between atoms: _41  and  _44
REMARK   19  A    between atoms: _44  and  _45
REMARK   20  A    between atoms: _50  and  _52
REMARK   21  A    between atoms: _52  and  _53
REMARK   22  A    between atoms: _55  and  _57
REMARK   23  A    between atoms: _57  and  _58
REMARK   24  A    between atoms: _60  and  _62
REMARK   25  A    between atoms: _62  and  _63
REMARK   26  A    between atoms: _62  and  _65
REMARK   27  A    between atoms: _65  and  _66
REMARK   28  A    between atoms: _69  and  _71
REMARK   29  A    between atoms: _71  and  _72
REMARK   30  A    between atoms: _74  and  _76
REMARK   31  A    between atoms: _76  and  _77
REMARK   32  A    between atoms: _76  and  _79
REMARK   33  A    between atoms: _79  and  _80
REMARK   34  A    between atoms: _80  and  _81
REMARK   35  A    between atoms: _81  and  _82
REMARK   36  A    between atoms: _91  and  _93
REMARK   37  A    between atoms: _93  and  _94
REMARK   38  A    between atoms: _93  and  _96
REMARK   39  A    between atoms: _96  and  _97
REMARK   40  A    between atoms: _100  and  _102
REMARK   41  A    between atoms: _102  and  _103
REMARK   42  A    between atoms: _106  and  _108
REMARK   43  A    between atoms: _108  and  _109
REMARK   44  A    between atoms: _108  and  _111
REMARK   45  A    between atoms: _111  and  _112
REMARK   46  A    between atoms: _118  and  _120
REMARK   47  A    between atoms: _120  and  _121
REMARK   48  A    between atoms: _120  and  _123
REMARK   49  A    between atoms: _123  and  _124
REMARK   50  A    between atoms: _129  and  _131
REMARK   51  A    between atoms: _131  and  _132
REMARK   52  A    between atoms: _131  and  _134
REMARK   53  A    between atoms: _134  and  _135
REMARK   54  A    between atoms: _138  and  _140
REMARK   55  A    between atoms: _140  and  _141
REMARK   56  A    between atoms: _140  and  _143
REMARK   57  A    between atoms: _143  and  _144
REMARK   58  A    between atoms: _149  and  _151
REMARK   59  A    between atoms: _151  and  _152
REMARK   60  A    between atoms: _151  and  _154
REMARK   61  A    between atoms: _154  and  _155
REMARK   62  A    between atoms: _161  and  _163
REMARK   63  A    between atoms: _163  and  _164
REMARK   64  A    between atoms: _163  and  _166
REMARK   65  A    between atoms: _166  and  _167
REMARK   66  A    between atoms: _173  and  _175
REMARK   67  A    between atoms: _175  and  _176
REMARK   68  A    between atoms: _175  and  _178
REMARK   69  A    between atoms: _178  and  _179
REMARK   70  A    between atoms: _179  and  _180
REMARK   71  A    between atoms: _180  and  _181
REMARK   72  A    between atoms: _190  and  _192
REMARK   73  A    between atoms: _192  and  _193
REMARK   74  A    between atoms: _192  and  _195
REMARK   75  A    between atoms: _195  and  _196
REMARK   76  A    between atoms: _196  and  _197
REMARK   77  A    between atoms: _200  and  _202
REMARK   78  A    between atoms: _202  and  _203
REMARK   79  A    between atoms: _202  and  _205
REMARK   80  A    between atoms: _205  and  _206
REMARK   81  A    between atoms: _211  and  _213
REMARK   82  A    between atoms: _213  and  _214
REMARK   83  A    between atoms: _213  and  _216
REMARK   84  A    between atoms: _216  and  _217
REMARK   85  A    between atoms: _220  and  _222
REMARK   86  A    between atoms: _222  and  _223
REMARK   87  A    between atoms: _222  and  _225
REMARK   88  A    between atoms: _225  and  _226
REMARK   89  A    between atoms: _229  and  _231
REMARK   90  A    between atoms: _231  and  _232
REMARK   91  A    between atoms: _231  and  _234
REMARK   92  A    between atoms: _234  and  _235
REMARK   93  A    between atoms: _241  and  _242
REMARK   94  A    between atoms: _247  and  _249
REMARK   95  A    between atoms: _249  and  _250
REMARK   96  A    between atoms: _249  and  _252
REMARK   97  A    between atoms: _252  and  _253
REMARK   98  A    between atoms: _258  and  _259
REMARK   99  A    between atoms: _261  and  _263
REMARK  100  A    between atoms: _263  and  _264
REMARK  101  A    between atoms: _263  and  _266
REMARK  102  A    between atoms: _266  and  _267
REMARK  103  A    between atoms: _270  and  _272
REMARK  104  A    between atoms: _272  and  _273
REMARK  105  A    between atoms: _272  and  _275
REMARK  106  A    between atoms: _275  and  _276
REMARK  107  A    between atoms: _281  and  _283
REMARK  108  A    between atoms: _283  and  _284
REMARK  109  A    between atoms: _283  and  _286
REMARK  110  A    between atoms: _286  and  _287
REMARK  111  A    between atoms: _292  and  _294
REMARK  112  A    between atoms: _294  and  _295
REMARK  113  A    between atoms: _294  and  _297
REMARK  114  A    between atoms: _297  and  _298
REMARK  115  A    between atoms: _301  and  _303
REMARK  116  A    between atoms: _303  and  _304
REMARK  117  A    between atoms: _303  and  _306
REMARK  118  A    between atoms: _309  and  _311
REMARK  119  A    between atoms: _311  and  _312
REMARK  120  A    between atoms: _311  and  _314
REMARK  121  A    between atoms: _314  and  _315
REMARK  122  A    between atoms: _319  and  _320
REMARK  123  A    between atoms: _325  and  _327
REMARK  124  A    between atoms: _327  and  _328
REMARK  125  A    between atoms: _327  and  _330
REMARK  126  A    between atoms: _330  and  _331
REMARK  127  A    between atoms: _331  and  _332
REMARK  128  A    between atoms: _335  and  _337
REMARK  129  A    between atoms: _337  and  _338
REMARK  130  A    between atoms: _341  and  _343
REMARK  131  A    between atoms: _343  and  _344
REMARK  132  A    between atoms: _343  and  _346
REMARK  133  A    between atoms: _346  and  _347
REMARK  134  A    between atoms: _350  and  _352
REMARK  135  A    between atoms: _352  and  _353
REMARK  136  A    between atoms: _352  and  _355
REMARK  137  A    between atoms: _355  and  _356
REMARK  138  A    between atoms: _356  and  _357
REMARK  139  A    between atoms: _360  and  _362
REMARK  140  A    between atoms: _362  and  _363
REMARK  141  A    between atoms: _362  and  _365
REMARK  142  A    between atoms: _365  and  _366
REMARK  143  A    between atoms: _366  and  _367
REMARK  144  A    between atoms: _369  and  _371
REMARK  145  A    between atoms: _371  and  _372
REMARK  146  A    between atoms: _375  and  _377
REMARK  147  A    between atoms: _377  and  _378
REMARK  148  A    between atoms: _377  and  _380
REMARK  149  A    between atoms: _380  and  _381
REMARK  150  A    between atoms: _386  and  _388
REMARK  151  A    between atoms: _388  and  _389
REMARK  152  A    between atoms: _391  and  _393
REMARK  153  A    between atoms: _393  and  _394
REMARK  154  A    between atoms: _393  and  _396
REMARK  155  A    between atoms: _399  and  _401
REMARK  156  A    between atoms: _401  and  _402
REMARK  157  A    between atoms: _405  and  _407
REMARK  158  A    between atoms: _407  and  _408
REMARK  159  A    between atoms: _407  and  _410
REMARK  160  A    between atoms: _410  and  _411
REMARK  161  A    between atoms: _416  and  _418
REMARK  162  A    between atoms: _418  and  _419
REMARK  163  A    between atoms: _418  and  _421
REMARK  164  A    between atoms: _421  and  _422
REMARK  165  A    between atoms: _428  and  _430
REMARK  166  A    between atoms: _430  and  _431
REMARK  167  A    between atoms: _430  and  _433
REMARK  168  A    between atoms: _433  and  _434
REMARK  169  A    between atoms: _434  and  _435
REMARK  170  A    between atoms: _435  and  _436
REMARK  171  A    between atoms: _436  and  _437
REMARK  172  A    between atoms: _441  and  _443
REMARK  173  A    between atoms: _443  and  _444
REMARK  174  A    between atoms: _443  and  _446
REMARK  175  A    between atoms: _446  and  _447
REMARK  176  A    between atoms: _450  and  _452
REMARK  177  A    between atoms: _452  and  _453
REMARK  178  A    between atoms: _452  and  _455
REMARK  179  A    between atoms: _455  and  _456
REMARK  180  A    between atoms: _461  and  _463
REMARK  181  A    between atoms: _463  and  _464
REMARK  182  A    between atoms: _466  and  _468
REMARK  183  A    between atoms: _468  and  _469
REMARK  184  A    between atoms: _468  and  _471
REMARK  185  A    between atoms: _471  and  _472
REMARK  186  A    between atoms: _475  and  _477
REMARK  187  A    between atoms: _477  and  _478
REMARK  188  A    between atoms: _477  and  _480
REMARK  189  A    between atoms: _480  and  _481
REMARK  190  A    between atoms: _481  and  _482
REMARK  191  A    between atoms: _482  and  _483
REMARK  192  A    between atoms: _483  and  _484
REMARK  193  A    between atoms: _488  and  _490
REMARK  194  A    between atoms: _490  and  _491
REMARK  195  A    between atoms: _490  and  _493
REMARK  196  A    between atoms: _493  and  _494
REMARK  197  A    between atoms: _494  and  _495
REMARK  198  A    between atoms: _495  and  _496
REMARK  199  A    between atoms: _505  and  _507
REMARK  200  A    between atoms: _507  and  _508
REMARK  201  A    between atoms: _507  and  _510
REMARK  202  A    between atoms: _510  and  _511
REMARK  203  A    between atoms: _516  and  _518
REMARK  204  A    between atoms: _518  and  _519
REMARK  205  A    between atoms: _518  and  _521
REMARK  206  A    between atoms: _521  and  _522
REMARK  207  A    between atoms: _527  and  _528
REMARK  208  A    between atoms: _530  and  _532
REMARK  209  A    between atoms: _532  and  _533
REMARK  210  A    between atoms: _532  and  _535
REMARK  211  A    between atoms: _535  and  _536
REMARK  212  A    between atoms: _536  and  _537
REMARK  213  A    between atoms: _537  and  _538
REMARK  214  A    between atoms: _538  and  _539
REMARK  215  A    between atoms: _543  and  _545
REMARK  216  A    between atoms: _545  and  _546
REMARK  217  A    between atoms: _545  and  _548
REMARK  218  A    between atoms: _548  and  _549
REMARK  219  A    between atoms: _551  and  _553
REMARK  220  A    between atoms: _553  and  _554
REMARK  221  A    between atoms: _553  and  _556
REMARK  222  A    between atoms: _556  and  _557
REMARK  223  A    between atoms: _560  and  _562
REMARK  224  A    between atoms: _562  and  _563
REMARK  225  A    between atoms: _562  and  _565
REMARK  226  A    between atoms: _565  and  _566
REMARK  227  A    between atoms: _566  and  _567
REMARK  228  A    between atoms: _570  and  _572
REMARK  229  A    between atoms: _572  and  _573
REMARK  230  A    between atoms: _576  and  _578
REMARK  231  A    between atoms: _578  and  _579
REMARK  232  A    between atoms: _578  and  _581
REMARK  233  A    between atoms: _581  and  _582
REMARK  234  A    between atoms: _584  and  _586
REMARK  235  A    between atoms: _586  and  _587
REMARK  236  A    between atoms: _589  and  _591
REMARK  237  A    between atoms: _591  and  _592
REMARK  238  A    between atoms: _591  and  _594
REMARK  239  A    between atoms: _594  and  _595
REMARK  240  A    between atoms: _598  and  _600
REMARK  241  A    between atoms: _600  and  _601
REMARK  242  A    between atoms: _603  and  _605
REMARK  243  A    between atoms: _605  and  _606
REMARK  244  A    between atoms: _605  and  _608
REMARK  245  A    between atoms: _608  and  _609
REMARK  246  A    between atoms: _614  and  _616
REMARK  247  A    between atoms: _616  and  _617
REMARK  248  A    between atoms: _616  and  _619
REMARK  249  A    between atoms: _619  and  _620
REMARK  250  A    between atoms: _620  and  _621
REMARK  251  A    between atoms: _628  and  _629
REMARK  252  A    between atoms: _629  and  _645
REMARK  253  A    between atoms: _630  and  _632
REMARK  254  A    between atoms: _632  and  _633
REMARK  255  A    between atoms: _633  and  _634
REMARK  256  A    between atoms: _638  and  _640
REMARK  257  A    between atoms: _640  and  _641
REMARK  258  A    between atoms: _640  and  _648
REMARK  259  A    between atoms: _641  and  _642
REMARK  260  A    between atoms: _642  and  _643
REMARK  261  A    between atoms: _643  and  _644
REMARK  262  A    between atoms: _644  and  _645
REMARK  263  A    between atoms: _650  and  _652
REMARK  264  A    between atoms: _652  and  _653
REMARK  265  A    between atoms: _652  and  _655
REMARK  266  A    between atoms: _655  and  _656
REMARK  267  A    between atoms: _659  and  _661
REMARK  268  A    between atoms: _661  and  _662
REMARK  269  A    between atoms: _664  and  _666
REMARK  270  A    between atoms: _666  and  _667
REMARK  271  A    between atoms: _670  and  _672
REMARK  272  A    between atoms: _672  and  _673
REMARK  273  A    between atoms: _672  and  _675
REMARK  274  A    between atoms: _675  and  _676
REMARK  275  A    between atoms: _679  and  _681
REMARK  276  A    between atoms: _681  and  _682
REMARK  277  A    between atoms: _681  and  _684
REMARK  278  A    between atoms: _684  and  _685
REMARK  279  A    between atoms: _690  and  _691
REMARK                            x       y       z     vdW  Elec       q    Type
REMARK                         _______ _______ _______ _____ _____    ______ ____
ROOT
ATOM      1  C   THR A   2      31.637  12.467  22.642  0.00  0.00    +0.243 C 
ATOM      2  N   ASN A   3      31.356  13.696  23.079  0.00  0.00    -0.297 N 
ATOM      3  H   ASN A   3      31.844  14.504  22.643  0.00  0.00    +0.150 HD
ATOM      4  O   THR A   2      31.093  11.439  23.077  0.00  0.00    -0.273 OA
ENDROOT
BRANCH   2   5
ATOM      5  CA  ASN A   3      30.389  13.952  24.146  0.00  0.00    +0.158 C 
BRANCH   5   6
ATOM      6  C   ASN A   3      29.000  13.468  23.760  0.00  0.00    +0.241 C 
ATOM      7  N   GLY A   4      28.119  13.361  24.739  0.00  0.00    -0.295 N 
ATOM      8  H   GLY A   4      28.457  13.437  25.720  0.00  0.00    +0.150 HD
ATOM      9  O   ASN A   3      28.738  13.200  22.592  0.00  0.00    -0.273 OA
BRANCH   7  10
ATOM     10  CA  GLY A   4      26.700  13.142  24.510  0.00  0.00    +0.176 C 
BRANCH  10  11
ATOM     11  C   GLY A   4      25.908  13.800  25.640  0.00  0.00    +0.243 C 
ATOM     12  O   GLY A   4      26.467  14.528  26.454  0.00  0.00    -0.273 OA
ATOM     13  N   ILE A   5      24.599  13.544  25.674  0.00  0.00    -0.298 N 
ATOM     14  H   ILE A   5      24.223  12.863  24.984  0.00  0.00    +0.150 HD
BRANCH  13  15
ATOM     15  CA  ILE A   5      23.640  14.160  26.625  0.00  0.00    +0.137 C 
BRANCH  15  16
ATOM     16  CB  ILE A   5      22.854  15.295  25.986  0.00  0.00    +0.026 C 
ATOM     17  CG2 ILE A   5      23.753  16.525  25.786  0.00  0.00    +0.002 C 
BRANCH  16  18
ATOM     18  CG1 ILE A   5      22.267  14.862  24.625  0.00  0.00    +0.002 C 
ATOM     19  CD1 ILE A   5      20.983  15.544  24.254  0.00  0.00    +0.000 C 
ENDBRANCH  16  18
ENDBRANCH  15  16
BRANCH  15  20
ATOM     20  C   ILE A   5      22.658  13.035  26.993  0.00  0.00    +0.227 C 
ATOM     21  O   ILE A   5      22.501  12.082  26.233  0.00  0.00    -0.286 OA
ENDBRANCH  15  20
ENDBRANCH  13  15
ENDBRANCH  10  11
ENDBRANCH   7  10
ENDBRANCH   5   6
BRANCH   5  22
ATOM     22  CB  ASN A   3      30.371  15.444  24.463  0.00  0.00    +0.114 C 
BRANCH  22  23
ATOM     23  CG  ASN A   3      31.562  15.888  25.353  0.00  0.00    +0.222 C 
ATOM     24  ND2 ASN A   3      32.277  14.929  25.928  0.00  0.00    -0.329 N 
ATOM     25 HD21 ASN A   3      33.066  15.176  26.559  0.00  0.00    +0.145 HD
ATOM     26 HD22 ASN A   3      32.048  13.931  25.748  0.00  0.00    +0.145 HD
ATOM     27  OD1 ASN A   3      31.801  17.100  25.541  0.00  0.00    -0.275 OA
ENDBRANCH  22  23
ENDBRANCH   5  22
ENDBRANCH   2   5
BRANCH   1  28
ATOM     28  CA  THR A   2      32.704  12.374  21.547  0.00  0.00    +0.176 C 
BRANCH  28  31
ATOM     29  C   LYS A   1      34.304  11.276  23.003  0.00  0.00    +0.238 C 
ATOM     30  O   LYS A   1      34.248  12.174  23.841  0.00  0.00    -0.274 OA
ATOM     31  N   THR A   2      33.613  11.303  21.884  0.00  0.00    -0.295 N 
ATOM     32  H   THR A   2      33.726  10.518  21.212  0.00  0.00    +0.150 HD
BRANCH  29  33
ATOM     33  CA  LYS A   1      35.216  10.107  23.181  0.00  0.00    +0.145 C 
BRANCH  33  34
ATOM     34  N   LYS A   1      36.476  10.587  22.634  0.00  0.00    -0.238 NA
ATOM     35  H   LYS A   1      36.729  11.590  22.739  0.00  0.00    +0.142 HD
ENDBRANCH  33  34
BRANCH  33  36
ATOM     36  CB  LYS A   1      35.337   9.777  24.673  0.00  0.00    +0.026 C 
BRANCH  36  37
ATOM     37  CG  LYS A   1      36.218   8.596  24.999  0.00  0.00    -0.000 C 
BRANCH  37  38
ATOM     38  CD  LYS A   1      35.624   7.271  24.552  0.00  0.00    -0.024 C 
BRANCH  38  39
ATOM     39  CE  LYS A   1      36.630   6.167  24.778  0.00  0.00    -0.086 C 
BRANCH  39  40
ATOM     40  NZ  LYS A   1      37.507   6.010  23.584  0.00  0.00    +0.380 N 
ATOM     41  HZ1 LYS A   1      38.192   5.247  23.757  0.00  0.00    -0.089 HD
ATOM     42  HZ2 LYS A   1      38.015   6.901  23.409  0.00  0.00    -0.089 HD
ATOM     43  HZ3 LYS A   1      36.924   5.773  22.756  0.00  0.00    -0.089 HD
ENDBRANCH  39  40
ENDBRANCH  38  39
ENDBRANCH  37  38
ENDBRANCH  36  37
ENDBRANCH  33  36
ENDBRANCH  29  33
ENDBRANCH  28  31
BRANCH  28  44
ATOM     44  CB  THR A   2      32.083  12.038  20.183  0.00  0.00    +0.137 C 
ATOM     45  CG2 THR A   2      31.096  13.092  19.680  0.00  0.00    +0.034 C 
BRANCH  44  46
ATOM     46  OG1 THR A   2      33.161  11.907  19.272  0.00  0.00    -0.382 OA
ATOM     47  HG1 THR A   2      33.762  11.182  19.576  0.00  0.00    +0.210 HD
ENDBRANCH  44  46
ENDBRANCH  28  44
ENDBRANCH   1  28
TORSDOF 21
REMARK  Name = ../refined-set-2016/4eky/4eky_pocket.pdb
REMARK  279 active torsions:
REMARK  status: ('A' for Active; 'I' for Inactive)
REMARK    1  A    between atoms: _1  and  _3
REMARK    2  A    between atoms: _3  and  _4
REMARK    3  A    between atoms: _3  and  _6
REMARK    4  A    between atoms: _6  and  _7
REMARK    5  A    between atoms: _12  and  _13
REMARK    6  A    between atoms: _15  and  _17
REMARK    7  A    between atoms: _17  and  _18
REMARK    8  A    between atoms: _17  and  _20
REMARK    9  A    between atoms: _20  and  _21
REMARK   10  A    between atoms: _21  and  _22
REMARK   11  A    between atoms: _25  and  _27
REMARK   12  A    between atoms: _27  and  _28
REMARK   13  A    between atoms: _27  and  _30
REMARK   14  A    between atoms: _30  and  _31
REMARK   15  A    between atoms: _36  and  _37
REMARK   16  A    between atoms: _39  and  _41
REMARK   17  A    between atoms: _41  and  _42
REMARK   18  A    between atoms: _41  and  _44
REMARK   19  A    between atoms: _44  and  _45
REMARK   20  A    between atoms: _50  and  _52
REMARK   21  A    between atoms: _52  and  _53
REMARK   22  A    between atoms: _55  and  _57
REMARK   23  A    between atoms: _57  and  _58
REMARK   24  A    between atoms: _60  and  _62
REMARK   25  A    between atoms: _62  and  _63
REMARK   26  A    between atoms: _62  and  _65
REMARK   27  A    between atoms: _65  and  _66
REMARK   28  A    between atoms: _69  and  _71
REMARK   29  A    between atoms: _71  and  _72
REMARK   30  A    between atoms: _74  and  _76
REMARK   31  A    between atoms: _76  and  _77
REMARK   32  A    between atoms: _76  and  _79
REMARK   33  A    between atoms: _79  and  _80
REMARK   34  A    between atoms: _80  and  _81
REMARK   35  A    between atoms: _81  and  _82
REMARK   36  A    between atoms: _91  and  _93
REMARK   37  A    between atoms: _93  and  _94
REMARK   38  A    between atoms: _93  and  _96
REMARK   39  A    between atoms: _96  and  _97
REMARK   40  A    between atoms: _100  and  _102
REMARK   41  A    between atoms: _102  and  _103
REMARK   42  A    between atoms: _106  and  _108
REMARK   43  A    between atoms: _108  and  _109
REMARK   44  A    between atoms: _108  and  _111
REMARK   45  A    between atoms: _111  and  _112
REMARK   46  A    between atoms: _118  and  _120
REMARK   47  A    between atoms: _120  and  _121
REMARK   48  A    between atoms: _120  and  _123
REMARK   49  A    between atoms: _123  and  _124
REMARK   50  A    between atoms: _129  and  _131
REMARK   51  A    between atoms: _131  and  _132
REMARK   52  A    between atoms: _131  and  _134
REMARK   53  A    between atoms: _134  and  _135
REMARK   54  A    between atoms: _138  and  _140
REMARK   55  A    between atoms: _140  and  _141
REMARK   56  A    between atoms: _140  and  _143
REMARK   57  A    between atoms: _143  and  _144
REMARK   58  A    between atoms: _149  and  _151
REMARK   59  A    between atoms: _151  and  _152
REMARK   60  A    between atoms: _151  and  _154
REMARK   61  A    between atoms: _154  and  _155
REMARK   62  A    between atoms: _161  and  _163
REMARK   63  A    between atoms: _163  and  _164
REMARK   64  A    between atoms: _163  and  _166
REMARK   65  A    between atoms: _166  and  _167
REMARK   66  A    between atoms: _173  and  _175
REMARK   67  A    between atoms: _175  and  _176
REMARK   68  A    between atoms: _175  and  _178
REMARK   69  A    between atoms: _178  and  _179
REMARK   70  A    between atoms: _179  and  _180
REMARK   71  A    between atoms: _180  and  _181
REMARK   72  A    between atoms: _190  and  _192
REMARK   73  A    between atoms: _192  and  _193
REMARK   74  A    between atoms: _192  and  _195
REMARK   75  A    between atoms: _195  and  _196
REMARK   76  A    between atoms: _196  and  _197
REMARK   77  A    between atoms: _200  and  _202
REMARK   78  A    between atoms: _202  and  _203
REMARK   79  A    between atoms: _202  and  _205
REMARK   80  A    between atoms: _205  and  _206
REMARK   81  A    between atoms: _211  and  _213
REMARK   82  A    between atoms: _213  and  _214
REMARK   83  A    between atoms: _213  and  _216
REMARK   84  A    between atoms: _216  and  _217
REMARK   85  A    between atoms: _220  and  _222
REMARK   86  A    between atoms: _222  and  _223
REMARK   87  A    between atoms: _222  and  _225
REMARK   88  A    between atoms: _225  and  _226
REMARK   89  A    between atoms: _229  and  _231
REMARK   90  A    between atoms: _231  and  _232
REMARK   91  A    between atoms: _231  and  _234
REMARK   92  A    between atoms: _234  and  _235
REMARK   93  A    between atoms: _241  and  _242
REMARK   94  A    between atoms: _247  and  _249
REMARK   95  A    between atoms: _249  and  _250
REMARK   96  A    between atoms: _249  and  _252
REMARK   97  A    between atoms: _252  and  _253
REMARK   98  A    between atoms: _258  and  _259
REMARK   99  A    between atoms: _261  and  _263
REMARK  100  A    between atoms: _263  and  _264
REMARK  101  A    between atoms: _263  and  _266
REMARK  102  A    between atoms: _266  and  _267
REMARK  103  A    between atoms: _270  and  _272
REMARK  104  A    between atoms: _272  and  _273
REMARK  105  A    between atoms: _272  and  _275
REMARK  106  A    between atoms: _275  and  _276
REMARK  107  A    between atoms: _281  and  _283
REMARK  108  A    between atoms: _283  and  _284
REMARK  109  A    between atoms: _283  and  _286
REMARK  110  A    between atoms: _286  and  _287
REMARK  111  A    between atoms: _292  and  _294
REMARK  112  A    between atoms: _294  and  _295
REMARK  113  A    between atoms: _294  and  _297
REMARK  114  A    between atoms: _297  and  _298
REMARK  115  A    between atoms: _301  and  _303
REMARK  116  A    between atoms: _303  and  _304
REMARK  117  A    between atoms: _303  and  _306
REMARK  118  A    between atoms: _309  and  _311
REMARK  119  A    between atoms: _311  and  _312
REMARK  120  A    between atoms: _311  and  _314
REMARK  121  A    between atoms: _314  and  _315
REMARK  122  A    between atoms: _319  and  _320
REMARK  123  A    between atoms: _325  and  _327
REMARK  124  A    between atoms: _327  and  _328
REMARK  125  A    between atoms: _327  and  _330
REMARK  126  A    between atoms: _330  and  _331
REMARK  127  A    between atoms: _331  and  _332
REMARK  128  A    between atoms: _335  and  _337
REMARK  129  A    between atoms: _337  and  _338
REMARK  130  A    between atoms: _341  and  _343
REMARK  131  A    between atoms: _343  and  _344
REMARK  132  A    between atoms: _343  and  _346
REMARK  133  A    between atoms: _346  and  _347
REMARK  134  A    between atoms: _350  and  _352
REMARK  135  A    between atoms: _352  and  _353
REMARK  136  A    between atoms: _352  and  _355
REMARK  137  A    between atoms: _355  and  _356
REMARK  138  A    between atoms: _356  and  _357
REMARK  139  A    between atoms: _360  and  _362
REMARK  140  A    between atoms: _362  and  _363
REMARK  141  A    between atoms: _362  and  _365
REMARK  142  A    between atoms: _365  and  _366
REMARK  143  A    between atoms: _366  and  _367
REMARK  144  A    between atoms: _369  and  _371
REMARK  145  A    between atoms: _371  and  _372
REMARK  146  A    between atoms: _375  and  _377
REMARK  147  A    between atoms: _377  and  _378
REMARK  148  A    between atoms: _377  and  _380
REMARK  149  A    between atoms: _380  and  _381
REMARK  150  A    between atoms: _386  and  _388
REMARK  151  A    between atoms: _388  and  _389
REMARK  152  A    between atoms: _391  and  _393
REMARK  153  A    between atoms: _393  and  _394
REMARK  154  A    between atoms: _393  and  _396
REMARK  155  A    between atoms: _399  and  _401
REMARK  156  A    between atoms: _401  and  _402
REMARK  157  A    between atoms: _405  and  _407
REMARK  158  A    between atoms: _407  and  _408
REMARK  159  A    between atoms: _407  and  _410
REMARK  160  A    between atoms: _410  and  _411
REMARK  161  A    between atoms: _416  and  _418
REMARK  162  A    between atoms: _418  and  _419
REMARK  163  A    between atoms: _418  and  _421
REMARK  164  A    between atoms: _421  and  _422
REMARK  165  A    between atoms: _428  and  _430
REMARK  166  A    between atoms: _430  and  _431
REMARK  167  A    between atoms: _430  and  _433
REMARK  168  A    between atoms: _433  and  _434
REMARK  169  A    between atoms: _434  and  _435
REMARK  170  A    between atoms: _435  and  _436
REMARK  171  A    between atoms: _436  and  _437
REMARK  172  A    between atoms: _441  and  _443
REMARK  173  A    between atoms: _443  and  _444
REMARK  174  A    between atoms: _443  and  _446
REMARK  175  A    between atoms: _446  and  _447
REMARK  176  A    between atoms: _450  and  _452
REMARK  177  A    between atoms: _452  and  _453
REMARK  178  A    between atoms: _452  and  _455
REMARK  179  A    between atoms: _455  and  _456
REMARK  180  A    between atoms: _461  and  _463
REMARK  181  A    between atoms: _463  and  _464
REMARK  182  A    between atoms: _466  and  _468
REMARK  183  A    between atoms: _468  and  _469
REMARK  184  A    between atoms: _468  and  _471
REMARK  185  A    between atoms: _471  and  _472
REMARK  186  A    between atoms: _475  and  _477
REMARK  187  A    between atoms: _477  and  _478
REMARK  188  A    between atoms: _477  and  _480
REMARK  189  A    between atoms: _480  and  _481
REMARK  190  A    between atoms: _481  and  _482
REMARK  191  A    between atoms: _482  and  _483
REMARK  192  A    between atoms: _483  and  _484
REMARK  193  A    between atoms: _488  and  _490
REMARK  194  A    between atoms: _490  and  _491
REMARK  195  A    between atoms: _490  and  _493
REMARK  196  A    between atoms: _493  and  _494
REMARK  197  A    between atoms: _494  and  _495
REMARK  198  A    between atoms: _495  and  _496
REMARK  199  A    between atoms: _505  and  _507
REMARK  200  A    between atoms: _507  and  _508
REMARK  201  A    between atoms: _507  and  _510
REMARK  202  A    between atoms: _510  and  _511
REMARK  203  A    between atoms: _516  and  _518
REMARK  204  A    between atoms: _518  and  _519
REMARK  205  A    between atoms: _518  and  _521
REMARK  206  A    between atoms: _521  and  _522
REMARK  207  A    between atoms: _527  and  _528
REMARK  208  A    between atoms: _530  and  _532
REMARK  209  A    between atoms: _532  and  _533
REMARK  210  A    between atoms: _532  and  _535
REMARK  211  A    between atoms: _535  and  _536
REMARK  212  A    between atoms: _536  and  _537
REMARK  213  A    between atoms: _537  and  _538
REMARK  214  A    between atoms: _538  and  _539
REMARK  215  A    between atoms: _543  and  _545
REMARK  216  A    between atoms: _545  and  _546
REMARK  217  A    between atoms: _545  and  _548
REMARK  218  A    between atoms: _548  and  _549
REMARK  219  A    between atoms: _551  and  _553
REMARK  220  A    between atoms: _553  and  _554
REMARK  221  A    between atoms: _553  and  _556
REMARK  222  A    between atoms: _556  and  _557
REMARK  223  A    between atoms: _560  and  _562
REMARK  224  A    between atoms: _562  and  _563
REMARK  225  A    between atoms: _562  and  _565
REMARK  226  A    between atoms: _565  and  _566
REMARK  227  A    between atoms: _566  and  _567
REMARK  228  A    between atoms: _570  and  _572
REMARK  229  A    between atoms: _572  and  _573
REMARK  230  A    between atoms: _576  and  _578
REMARK  231  A    between atoms: _578  and  _579
REMARK  232  A    between atoms: _578  and  _581
REMARK  233  A    between atoms: _581  and  _582
REMARK  234  A    between atoms: _584  and  _586
REMARK  235  A    between atoms: _586  and  _587
REMARK  236  A    between atoms: _589  and  _591
REMARK  237  A    between atoms: _591  and  _592
REMARK  238  A    between atoms: _591  and  _594
REMARK  239  A    between atoms: _594  and  _595
REMARK  240  A    between atoms: _598  and  _600
REMARK  241  A    between atoms: _600  and  _601
REMARK  242  A    between atoms: _603  and  _605
REMARK  243  A    between atoms: _605  and  _606
REMARK  244  A    between atoms: _605  and  _608
REMARK  245  A    between atoms: _608  and  _609
REMARK  246  A    between atoms: _614  and  _616
REMARK  247  A    between atoms: _616  and  _617
REMARK  248  A    between atoms: _616  and  _619
REMARK  249  A    between atoms: _619  and  _620
REMARK  250  A    between atoms: _620  and  _621
REMARK  251  A    between atoms: _628  and  _629
REMARK  252  A    between atoms: _629  and  _645
REMARK  253  A    between atoms: _630  and  _632
REMARK  254  A    between atoms: _632  and  _633
REMARK  255  A    between atoms: _633  and  _634
REMARK  256  A    between atoms: _638  and  _640
REMARK  257  A    between atoms: _640  and  _641
REMARK  258  A    between atoms: _640  and  _648
REMARK  259  A    between atoms: _641  and  _642
REMARK  260  A    between atoms: _642  and  _643
REMARK  261  A    between atoms: _643  and  _644
REMARK  262  A    between atoms: _644  and  _645
REMARK  263  A    between atoms: _650  and  _652
REMARK  264  A    between atoms: _652  and  _653
REMARK  265  A    between atoms: _652  and  _655
REMARK  266  A    between atoms: _655  and  _656
REMARK  267  A    between atoms: _659  and  _661
REMARK  268  A    between atoms: _661  and  _662
REMARK  269  A    between atoms: _664  and  _666
REMARK  270  A    between atoms: _666  and  _667
REMARK  271  A    between atoms: _670  and  _672
REMARK  272  A    between atoms: _672  and  _673
REMARK  273  A    between atoms: _672  and  _675
REMARK  274  A    between atoms: _675  and  _676
REMARK  275  A    between atoms: _679  and  _681
REMARK  276  A    between atoms: _681  and  _682
REMARK  277  A    between atoms: _681  and  _684
REMARK  278  A    between atoms: _684  and  _685
REMARK  279  A    between atoms: _690  and  _691
REMARK                            x       y       z     vdW  Elec       q    Type
REMARK                         _______ _______ _______ _____ _____    ______ ____
ROOT
ATOM      1  C   LYS A   1      26.016  30.307  27.260  0.00  0.00    +0.238 C 
ATOM      2  N   ARG A   2      27.134  29.996  27.925  0.00  0.00    -0.298 N 
ATOM      3  H   ARG A   2      27.471  29.013  27.951  0.00  0.00    +0.150 HD
ATOM      4  O   LYS A   1      25.590  31.481  27.175  0.00  0.00    -0.274 OA
ENDROOT
BRANCH   1   5
ATOM      5  CA  LYS A   1      25.277  29.148  26.531  0.00  0.00    +0.145 C 
BRANCH   5   6
ATOM      6  N   LYS A   1      24.018  29.737  26.085  0.00  0.00    -0.238 NA
ATOM      7  H   LYS A   1      23.799  30.706  26.392  0.00  0.00    +0.142 HD
ENDBRANCH   5   6
BRANCH   5   8
ATOM      8  CB  LYS A   1      26.111  28.690  25.331  0.00  0.00    +0.026 C 
BRANCH   8   9
ATOM      9  CG  LYS A   1      26.381  29.851  24.371  0.00  0.00    -0.000 C 
BRANCH   9  10
ATOM     10  CD  LYS A   1      27.000  29.467  23.051  0.00  0.00    -0.024 C 
BRANCH  10  11
ATOM     11  CE  LYS A   1      26.053  28.646  22.126  0.00  0.00    -0.086 C 
BRANCH  11  12
ATOM     12  NZ  LYS A   1      26.422  27.208  21.938  0.00  0.00    +0.380 N 
ATOM     13  HZ1 LYS A   1      26.421  26.728  22.860  0.00  0.00    -0.089 HD
ATOM     14  HZ2 LYS A   1      27.370  27.147  21.516  0.00  0.00    -0.089 HD
ATOM     15  HZ3 LYS A   1      25.731  26.753  21.308  0.00  0.00    -0.089 HD
ENDBRANCH  11  12
ENDBRANCH  10  11
ENDBRANCH   9  10
ENDBRANCH   8   9
ENDBRANCH   5   8
ENDBRANCH   1   5
BRANCH   2  16
ATOM     16  CA  ARG A   2      27.870  31.035  28.607  0.00  0.00    +0.137 C 
BRANCH  16  17
ATOM     17  C   ARG A   2      28.354  32.060  27.585  0.00  0.00    +0.227 C 
ATOM     18  O   ARG A   2      28.624  31.720  26.395  0.00  0.00    -0.286 OA
ENDBRANCH  16  17
BRANCH  16  19
ATOM     19  CB  ARG A   2      29.055  30.476  29.416  0.00  0.00    +0.031 C 
BRANCH  19  20
ATOM     20  CG  ARG A   2      28.671  29.710  30.656  0.00  0.00    +0.045 C 
BRANCH  20  21
ATOM     21  CD  ARG A   2      28.063  30.603  31.739  0.00  0.00    +0.174 C 
BRANCH  21  22
ATOM     22  NE  ARG A   2      29.053  31.500  32.353  0.00  0.00    -0.265 N 
ATOM     23  CZ  ARG A   2      29.766  31.208  33.433  0.00  0.00    +0.342 C 
ATOM     24  NH2 ARG A   2      29.618  30.039  34.051  0.00  0.00    -0.292 N 
ATOM     25 HH21 ARG A   2      30.183  29.823  34.897  0.00  0.00    +0.255 HD
ATOM     26 HH22 ARG A   2      28.937  29.342  33.688  0.00  0.00    +0.255 HD
ATOM     27  NH1 ARG A   2      30.633  32.091  33.897  0.00  0.00    -0.292 N 
ATOM     28 HH11 ARG A   2      31.197  31.871  34.743  0.00  0.00    +0.255 HD
ATOM     29 HH12 ARG A   2      30.752  33.005  33.416  0.00  0.00    +0.255 HD
ATOM     30  HE  ARG A   2      29.205  32.428  31.910  0.00  0.00    +0.259 HD
ENDBRANCH  21  22
ENDBRANCH  20  21
ENDBRANCH  19  20
ENDBRANCH  16  19
ENDBRANCH   2  16
TORSDOF 13
REMARK  Name = ../refined-set-2016/4eky/4eky_pocket.pdb
REMARK  279 active torsions:
REMARK  status: ('A' for Active; 'I' for Inactive)
REMARK    1  A    between atoms: _1  and  _3
REMARK    2  A    between atoms: _3  and  _4
REMARK    3  A    between atoms: _3  and  _6
REMARK    4  A    between atoms: _6  and  _7
REMARK    5  A    between atoms: _12  and  _13
REMARK    6  A    between atoms: _15  and  _17
REMARK    7  A    between atoms: _17  and  _18
REMARK    8  A    between atoms: _17  and  _20
REMARK    9  A    between atoms: _20  and  _21
REMARK   10  A    between atoms: _21  and  _22
REMARK   11  A    between atoms: _25  and  _27
REMARK   12  A    between atoms: _27  and  _28
REMARK   13  A    between atoms: _27  and  _30
REMARK   14  A    between atoms: _30  and  _31
REMARK   15  A    between atoms: _36  and  _37
REMARK   16  A    between atoms: _39  and  _41
REMARK   17  A    between atoms: _41  and  _42
REMARK   18  A    between atoms: _41  and  _44
REMARK   19  A    between atoms: _44  and  _45
REMARK   20  A    between atoms: _50  and  _52
REMARK   21  A    between atoms: _52  and  _53
REMARK   22  A    between atoms: _55  and  _57
REMARK   23  A    between atoms: _57  and  _58
REMARK   24  A    between atoms: _60  and  _62
REMARK   25  A    between atoms: _62  and  _63
REMARK   26  A    between atoms: _62  and  _65
REMARK   27  A    between atoms: _65  and  _66
REMARK   28  A    between atoms: _69  and  _71
REMARK   29  A    between atoms: _71  and  _72
REMARK   30  A    between atoms: _74  and  _76
REMARK   31  A    between atoms: _76  and  _77
REMARK   32  A    between atoms: _76  and  _79
REMARK   33  A    between atoms: _79  and  _80
REMARK   34  A    between atoms: _80  and  _81
REMARK   35  A    between atoms: _81  and  _82
REMARK   36  A    between atoms: _91  and  _93
REMARK   37  A    between atoms: _93  and  _94
REMARK   38  A    between atoms: _93  and  _96
REMARK   39  A    between atoms: _96  and  _97
REMARK   40  A    between atoms: _100  and  _102
REMARK   41  A    between atoms: _102  and  _103
REMARK   42  A    between atoms: _106  and  _108
REMARK   43  A    between atoms: _108  and  _109
REMARK   44  A    between atoms: _108  and  _111
REMARK   45  A    between atoms: _111  and  _112
REMARK   46  A    between atoms: _118  and  _120
REMARK   47  A    between atoms: _120  and  _121
REMARK   48  A    between atoms: _120  and  _123
REMARK   49  A    between atoms: _123  and  _124
REMARK   50  A    between atoms: _129  and  _131
REMARK   51  A    between atoms: _131  and  _132
REMARK   52  A    between atoms: _131  and  _134
REMARK   53  A    between atoms: _134  and  _135
REMARK   54  A    between atoms: _138  and  _140
REMARK   55  A    between atoms: _140  and  _141
REMARK   56  A    between atoms: _140  and  _143
REMARK   57  A    between atoms: _143  and  _144
REMARK   58  A    between atoms: _149  and  _151
REMARK   59  A    between atoms: _151  and  _152
REMARK   60  A    between atoms: _151  and  _154
REMARK   61  A    between atoms: _154  and  _155
REMARK   62  A    between atoms: _161  and  _163
REMARK   63  A    between atoms: _163  and  _164
REMARK   64  A    between atoms: _163  and  _166
REMARK   65  A    between atoms: _166  and  _167
REMARK   66  A    between atoms: _173  and  _175
REMARK   67  A    between atoms: _175  and  _176
REMARK   68  A    between atoms: _175  and  _178
REMARK   69  A    between atoms: _178  and  _179
REMARK   70  A    between atoms: _179  and  _180
REMARK   71  A    between atoms: _180  and  _181
REMARK   72  A    between atoms: _190  and  _192
REMARK   73  A    between atoms: _192  and  _193
REMARK   74  A    between atoms: _192  and  _195
REMARK   75  A    between atoms: _195  and  _196
REMARK   76  A    between atoms: _196  and  _197
REMARK   77  A    between atoms: _200  and  _202
REMARK   78  A    between atoms: _202  and  _203
REMARK   79  A    between atoms: _202  and  _205
REMARK   80  A    between atoms: _205  and  _206
REMARK   81  A    between atoms: _211  and  _213
REMARK   82  A    between atoms: _213  and  _214
REMARK   83  A    between atoms: _213  and  _216
REMARK   84  A    between atoms: _216  and  _217
REMARK   85  A    between atoms: _220  and  _222
REMARK   86  A    between atoms: _222  and  _223
REMARK   87  A    between atoms: _222  and  _225
REMARK   88  A    between atoms: _225  and  _226
REMARK   89  A    between atoms: _229  and  _231
REMARK   90  A    between atoms: _231  and  _232
REMARK   91  A    between atoms: _231  and  _234
REMARK   92  A    between atoms: _234  and  _235
REMARK   93  A    between atoms: _241  and  _242
REMARK   94  A    between atoms: _247  and  _249
REMARK   95  A    between atoms: _249  and  _250
REMARK   96  A    between atoms: _249  and  _252
REMARK   97  A    between atoms: _252  and  _253
REMARK   98  A    between atoms: _258  and  _259
REMARK   99  A    between atoms: _261  and  _263
REMARK  100  A    between atoms: _263  and  _264
REMARK  101  A    between atoms: _263  and  _266
REMARK  102  A    between atoms: _266  and  _267
REMARK  103  A    between atoms: _270  and  _272
REMARK  104  A    between atoms: _272  and  _273
REMARK  105  A    between atoms: _272  and  _275
REMARK  106  A    between atoms: _275  and  _276
REMARK  107  A    between atoms: _281  and  _283
REMARK  108  A    between atoms: _283  and  _284
REMARK  109  A    between atoms: _283  and  _286
REMARK  110  A    between atoms: _286  and  _287
REMARK  111  A    between atoms: _292  and  _294
REMARK  112  A    between atoms: _294  and  _295
REMARK  113  A    between atoms: _294  and  _297
REMARK  114  A    between atoms: _297  and  _298
REMARK  115  A    between atoms: _301  and  _303
REMARK  116  A    between atoms: _303  and  _304
REMARK  117  A    between atoms: _303  and  _306
REMARK  118  A    between atoms: _309  and  _311
REMARK  119  A    between atoms: _311  and  _312
REMARK  120  A    between atoms: _311  and  _314
REMARK  121  A    between atoms: _314  and  _315
REMARK  122  A    between atoms: _319  and  _320
REMARK  123  A    between atoms: _325  and  _327
REMARK  124  A    between atoms: _327  and  _328
REMARK  125  A    between atoms: _327  and  _330
REMARK  126  A    between atoms: _330  and  _331
REMARK  127  A    between atoms: _331  and  _332
REMARK  128  A    between atoms: _335  and  _337
REMARK  129  A    between atoms: _337  and  _338
REMARK  130  A    between atoms: _341  and  _343
REMARK  131  A    between atoms: _343  and  _344
REMARK  132  A    between atoms: _343  and  _346
REMARK  133  A    between atoms: _346  and  _347
REMARK  134  A    between atoms: _350  and  _352
REMARK  135  A    between atoms: _352  and  _353
REMARK  136  A    between atoms: _352  and  _355
REMARK  137  A    between atoms: _355  and  _356
REMARK  138  A    between atoms: _356  and  _357
REMARK  139  A    between atoms: _360  and  _362
REMARK  140  A    between atoms: _362  and  _363
REMARK  141  A    between atoms: _362  and  _365
REMARK  142  A    between atoms: _365  and  _366
REMARK  143  A    between atoms: _366  and  _367
REMARK  144  A    between atoms: _369  and  _371
REMARK  145  A    between atoms: _371  and  _372
REMARK  146  A    between atoms: _375  and  _377
REMARK  147  A    between atoms: _377  and  _378
REMARK  148  A    between atoms: _377  and  _380
REMARK  149  A    between atoms: _380  and  _381
REMARK  150  A    between atoms: _386  and  _388
REMARK  151  A    between atoms: _388  and  _389
REMARK  152  A    between atoms: _391  and  _393
REMARK  153  A    between atoms: _393  and  _394
REMARK  154  A    between atoms: _393  and  _396
REMARK  155  A    between atoms: _399  and  _401
REMARK  156  A    between atoms: _401  and  _402
REMARK  157  A    between atoms: _405  and  _407
REMARK  158  A    between atoms: _407  and  _408
REMARK  159  A    between atoms: _407  and  _410
REMARK  160  A    between atoms: _410  and  _411
REMARK  161  A    between atoms: _416  and  _418
REMARK  162  A    between atoms: _418  and  _419
REMARK  163  A    between atoms: _418  and  _421
REMARK  164  A    between atoms: _421  and  _422
REMARK  165  A    between atoms: _428  and  _430
REMARK  166  A    between atoms: _430  and  _431
REMARK  167  A    between atoms: _430  and  _433
REMARK  168  A    between atoms: _433  and  _434
REMARK  169  A    between atoms: _434  and  _435
REMARK  170  A    between atoms: _435  and  _436
REMARK  171  A    between atoms: _436  and  _437
REMARK  172  A    between atoms: _441  and  _443
REMARK  173  A    between atoms: _443  and  _444
REMARK  174  A    between atoms: _443  and  _446
REMARK  175  A    between atoms: _446  and  _447
REMARK  176  A    between atoms: _450  and  _452
REMARK  177  A    between atoms: _452  and  _453
REMARK  178  A    between atoms: _452  and  _455
REMARK  179  A    between atoms: _455  and  _456
REMARK  180  A    between atoms: _461  and  _463
REMARK  181  A    between atoms: _463  and  _464
REMARK  182  A    between atoms: _466  and  _468
REMARK  183  A    between atoms: _468  and  _469
REMARK  184  A    between atoms: _468  and  _471
REMARK  185  A    between atoms: _471  and  _472
REMARK  186  A    between atoms: _475  and  _477
REMARK  187  A    between atoms: _477  and  _478
REMARK  188  A    between atoms: _477  and  _480
REMARK  189  A    between atoms: _480  and  _481
REMARK  190  A    between atoms: _481  and  _482
REMARK  191  A    between atoms: _482  and  _483
REMARK  192  A    between atoms: _483  and  _484
REMARK  193  A    between atoms: _488  and  _490
REMARK  194  A    between atoms: _490  and  _491
REMARK  195  A    between atoms: _490  and  _493
REMARK  196  A    between atoms: _493  and  _494
REMARK  197  A    between atoms: _494  and  _495
REMARK  198  A    between atoms: _495  and  _496
REMARK  199  A    between atoms: _505  and  _507
REMARK  200  A    between atoms: _507  and  _508
REMARK  201  A    between atoms: _507  and  _510
REMARK  202  A    between atoms: _510  and  _511
REMARK  203  A    between atoms: _516  and  _518
REMARK  204  A    between atoms: _518  and  _519
REMARK  205  A    between atoms: _518  and  _521
REMARK  206  A    between atoms: _521  and  _522
REMARK  207  A    between atoms: _527  and  _528
REMARK  208  A    between atoms: _530  and  _532
REMARK  209  A    between atoms: _532  and  _533
REMARK  210  A    between atoms: _532  and  _535
REMARK  211  A    between atoms: _535  and  _536
REMARK  212  A    between atoms: _536  and  _537
REMARK  213  A    between atoms: _537  and  _538
REMARK  214  A    between atoms: _538  and  _539
REMARK  215  A    between atoms: _543  and  _545
REMARK  216  A    between atoms: _545  and  _546
REMARK  217  A    between atoms: _545  and  _548
REMARK  218  A    between atoms: _548  and  _549
REMARK  219  A    between atoms: _551  and  _553
REMARK  220  A    between atoms: _553  and  _554
REMARK  221  A    between atoms: _553  and  _556
REMARK  222  A    between atoms: _556  and  _557
REMARK  223  A    between atoms: _560  and  _562
REMARK  224  A    between atoms: _562  and  _563
REMARK  225  A    between atoms: _562  and  _565
REMARK  226  A    between atoms: _565  and  _566
REMARK  227  A    between atoms: _566  and  _567
REMARK  228  A    between atoms: _570  and  _572
REMARK  229  A    between atoms: _572  and  _573
REMARK  230  A    between atoms: _576  and  _578
REMARK  231  A    between atoms: _578  and  _579
REMARK  232  A    between atoms: _578  and  _581
REMARK  233  A    between atoms: _581  and  _582
REMARK  234  A    between atoms: _584  and  _586
REMARK  235  A    between atoms: _586  and  _587
REMARK  236  A    between atoms: _589  and  _591
REMARK  237  A    between atoms: _591  and  _592
REMARK  238  A    between atoms: _591  and  _594
REMARK  239  A    between atoms: _594  and  _595
REMARK  240  A    between atoms: _598  and  _600
REMARK  241  A    between atoms: _600  and  _601
REMARK  242  A    between atoms: _603  and  _605
REMARK  243  A    between atoms: _605  and  _606
REMARK  244  A    between atoms: _605  and  _608
REMARK  245  A    between atoms: _608  and  _609
REMARK  246  A    between atoms: _614  and  _616
REMARK  247  A    between atoms: _616  and  _617
REMARK  248  A    between atoms: _616  and  _619
REMARK  249  A    between atoms: _619  and  _620
REMARK  250  A    between atoms: _620  and  _621
REMARK  251  A    between atoms: _628  and  _629
REMARK  252  A    between atoms: _629  and  _645
REMARK  253  A    between atoms: _630  and  _632
REMARK  254  A    between atoms: _632  and  _633
REMARK  255  A    between atoms: _633  and  _634
REMARK  256  A    between atoms: _638  and  _640
REMARK  257  A    between atoms: _640  and  _641
REMARK  258  A    between atoms: _640  and  _648
REMARK  259  A    between atoms: _641  and  _642
REMARK  260  A    between atoms: _642  and  _643
REMARK  261  A    between atoms: _643  and  _644
REMARK  262  A    between atoms: _644  and  _645
REMARK  263  A    between atoms: _650  and  _652
REMARK  264  A    between atoms: _652  and  _653
REMARK  265  A    between atoms: _652  and  _655
REMARK  266  A    between atoms: _655  and  _656
REMARK  267  A    between atoms: _659  and  _661
REMARK  268  A    between atoms: _661  and  _662
REMARK  269  A    between atoms: _664  and  _666
REMARK  270  A    between atoms: _666  and  _667
REMARK  271  A    between atoms: _670  and  _672
REMARK  272  A    between atoms: _672  and  _673
REMARK  273  A    between atoms: _672  and  _675
REMARK  274  A    between atoms: _675  and  _676
REMARK  275  A    between atoms: _679  and  _681
REMARK  276  A    between atoms: _681  and  _682
REMARK  277  A    between atoms: _681  and  _684
REMARK  278  A    between atoms: _684  and  _685
REMARK  279  A    between atoms: _690  and  _691
REMARK                            x       y       z     vdW  Elec       q    Type
REMARK                         _______ _______ _______ _____ _____    ______ ____
ROOT
ATOM      1  CB  HIS A   1      32.992  32.820  25.952  0.00  0.00    +0.072 C 
ENDROOT
BRANCH   1   2
ATOM      2  CG  HIS A   1      34.494  32.855  26.070  0.00  0.00    +0.082 A 
ATOM      3  CD2 HIS A   1      35.319  32.502  27.087  0.00  0.00    +0.115 A 
ATOM      4  NE2 HIS A   1      36.606  32.745  26.671  0.00  0.00    -0.221 NA
ATOM      5  CE1 HIS A   1      36.576  33.236  25.445  0.00  0.00    +0.199 A 
ATOM      6  ND1 HIS A   1      35.315  33.314  25.059  0.00  0.00    -0.227 NA
ENDBRANCH   1   2
BRANCH   1   7
ATOM      7  CA  HIS A   1      32.355  34.217  25.722  0.00  0.00    +0.139 C 
BRANCH   7   8
ATOM      8  N   HIS A   1      30.932  34.295  26.005  0.00  0.00    -0.239 NA
ATOM      9  H   HIS A   1      30.275  34.261  25.200  0.00  0.00    +0.142 HD
ENDBRANCH   7   8
BRANCH   7  10
ATOM     10  C   HIS A   1      32.611  34.770  24.313  0.00  0.00    +0.224 C 
ATOM     11  O   HIS A   1      31.773  34.593  23.423  0.00  0.00    -0.287 OA
ENDBRANCH   7  10
ENDBRANCH   1   7
TORSDOF 4
REMARK  Name = ../refined-set-2016/4eky/4eky_pocket.pdb
REMARK  279 active torsions:
REMARK  status: ('A' for Active; 'I' for Inactive)
REMARK    1  A    between atoms: _1  and  _3
REMARK    2  A    between atoms: _3  and  _4
REMARK    3  A    between atoms: _3  and  _6
REMARK    4  A    between atoms: _6  and  _7
REMARK    5  A    between atoms: _12  and  _13
REMARK    6  A    between atoms: _15  and  _17
REMARK    7  A    between atoms: _17  and  _18
REMARK    8  A    between atoms: _17  and  _20
REMARK    9  A    between atoms: _20  and  _21
REMARK   10  A    between atoms: _21  and  _22
REMARK   11  A    between atoms: _25  and  _27
REMARK   12  A    between atoms: _27  and  _28
REMARK   13  A    between atoms: _27  and  _30
REMARK   14  A    between atoms: _30  and  _31
REMARK   15  A    between atoms: _36  and  _37
REMARK   16  A    between atoms: _39  and  _41
REMARK   17  A    between atoms: _41  and  _42
REMARK   18  A    between atoms: _41  and  _44
REMARK   19  A    between atoms: _44  and  _45
REMARK   20  A    between atoms: _50  and  _52
REMARK   21  A    between atoms: _52  and  _53
REMARK   22  A    between atoms: _55  and  _57
REMARK   23  A    between atoms: _57  and  _58
REMARK   24  A    between atoms: _60  and  _62
REMARK   25  A    between atoms: _62  and  _63
REMARK   26  A    between atoms: _62  and  _65
REMARK   27  A    between atoms: _65  and  _66
REMARK   28  A    between atoms: _69  and  _71
REMARK   29  A    between atoms: _71  and  _72
REMARK   30  A    between atoms: _74  and  _76
REMARK   31  A    between atoms: _76  and  _77
REMARK   32  A    between atoms: _76  and  _79
REMARK   33  A    between atoms: _79  and  _80
REMARK   34  A    between atoms: _80  and  _81
REMARK   35  A    between atoms: _81  and  _82
REMARK   36  A    between atoms: _91  and  _93
REMARK   37  A    between atoms: _93  and  _94
REMARK   38  A    between atoms: _93  and  _96
REMARK   39  A    between atoms: _96  and  _97
REMARK   40  A    between atoms: _100  and  _102
REMARK   41  A    between atoms: _102  and  _103
REMARK   42  A    between atoms: _106  and  _108
REMARK   43  A    between atoms: _108  and  _109
REMARK   44  A    between atoms: _108  and  _111
REMARK   45  A    between atoms: _111  and  _112
REMARK   46  A    between atoms: _118  and  _120
REMARK   47  A    between atoms: _120  and  _121
REMARK   48  A    between atoms: _120  and  _123
REMARK   49  A    between atoms: _123  and  _124
REMARK   50  A    between atoms: _129  and  _131
REMARK   51  A    between atoms: _131  and  _132
REMARK   52  A    between atoms: _131  and  _134
REMARK   53  A    between atoms: _134  and  _135
REMARK   54  A    between atoms: _138  and  _140
REMARK   55  A    between atoms: _140  and  _141
REMARK   56  A    between atoms: _140  and  _143
REMARK   57  A    between atoms: _143  and  _144
REMARK   58  A    between atoms: _149  and  _151
REMARK   59  A    between atoms: _151  and  _152
REMARK   60  A    between atoms: _151  and  _154
REMARK   61  A    between atoms: _154  and  _155
REMARK   62  A    between atoms: _161  and  _163
REMARK   63  A    between atoms: _163  and  _164
REMARK   64  A    between atoms: _163  and  _166
REMARK   65  A    between atoms: _166  and  _167
REMARK   66  A    between atoms: _173  and  _175
REMARK   67  A    between atoms: _175  and  _176
REMARK   68  A    between atoms: _175  and  _178
REMARK   69  A    between atoms: _178  and  _179
REMARK   70  A    between atoms: _179  and  _180
REMARK   71  A    between atoms: _180  and  _181
REMARK   72  A    between atoms: _190  and  _192
REMARK   73  A    between atoms: _192  and  _193
REMARK   74  A    between atoms: _192  and  _195
REMARK   75  A    between atoms: _195  and  _196
REMARK   76  A    between atoms: _196  and  _197
REMARK   77  A    between atoms: _200  and  _202
REMARK   78  A    between atoms: _202  and  _203
REMARK   79  A    between atoms: _202  and  _205
REMARK   80  A    between atoms: _205  and  _206
REMARK   81  A    between atoms: _211  and  _213
REMARK   82  A    between atoms: _213  and  _214
REMARK   83  A    between atoms: _213  and  _216
REMARK   84  A    between atoms: _216  and  _217
REMARK   85  A    between atoms: _220  and  _222
REMARK   86  A    between atoms: _222  and  _223
REMARK   87  A    between atoms: _222  and  _225
REMARK   88  A    between atoms: _225  and  _226
REMARK   89  A    between atoms: _229  and  _231
REMARK   90  A    between atoms: _231  and  _232
REMARK   91  A    between atoms: _231  and  _234
REMARK   92  A    between atoms: _234  and  _235
REMARK   93  A    between atoms: _241  and  _242
REMARK   94  A    between atoms: _247  and  _249
REMARK   95  A    between atoms: _249  and  _250
REMARK   96  A    between atoms: _249  and  _252
REMARK   97  A    between atoms: _252  and  _253
REMARK   98  A    between atoms: _258  and  _259
REMARK   99  A    between atoms: _261  and  _263
REMARK  100  A    between atoms: _263  and  _264
REMARK  101  A    between atoms: _263  and  _266
REMARK  102  A    between atoms: _266  and  _267
REMARK  103  A    between atoms: _270  and  _272
REMARK  104  A    between atoms: _272  and  _273
REMARK  105  A    between atoms: _272  and  _275
REMARK  106  A    between atoms: _275  and  _276
REMARK  107  A    between atoms: _281  and  _283
REMARK  108  A    between atoms: _283  and  _284
REMARK  109  A    between atoms: _283  and  _286
REMARK  110  A    between atoms: _286  and  _287
REMARK  111  A    between atoms: _292  and  _294
REMARK  112  A    between atoms: _294  and  _295
REMARK  113  A    between atoms: _294  and  _297
REMARK  114  A    between atoms: _297  and  _298
REMARK  115  A    between atoms: _301  and  _303
REMARK  116  A    between atoms: _303  and  _304
REMARK  117  A    between atoms: _303  and  _306
REMARK  118  A    between atoms: _309  and  _311
REMARK  119  A    between atoms: _311  and  _312
REMARK  120  A    between atoms: _311  and  _314
REMARK  121  A    between atoms: _314  and  _315
REMARK  122  A    between atoms: _319  and  _320
REMARK  123  A    between atoms: _325  and  _327
REMARK  124  A    between atoms: _327  and  _328
REMARK  125  A    between atoms: _327  and  _330
REMARK  126  A    between atoms: _330  and  _331
REMARK  127  A    between atoms: _331  and  _332
REMARK  128  A    between atoms: _335  and  _337
REMARK  129  A    between atoms: _337  and  _338
REMARK  130  A    between atoms: _341  and  _343
REMARK  131  A    between atoms: _343  and  _344
REMARK  132  A    between atoms: _343  and  _346
REMARK  133  A    between atoms: _346  and  _347
REMARK  134  A    between atoms: _350  and  _352
REMARK  135  A    between atoms: _352  and  _353
REMARK  136  A    between atoms: _352  and  _355
REMARK  137  A    between atoms: _355  and  _356
REMARK  138  A    between atoms: _356  and  _357
REMARK  139  A    between atoms: _360  and  _362
REMARK  140  A    between atoms: _362  and  _363
REMARK  141  A    between atoms: _362  and  _365
REMARK  142  A    between atoms: _365  and  _366
REMARK  143  A    between atoms: _366  and  _367
REMARK  144  A    between atoms: _369  and  _371
REMARK  145  A    between atoms: _371  and  _372
REMARK  146  A    between atoms: _375  and  _377
REMARK  147  A    between atoms: _377  and  _378
REMARK  148  A    between atoms: _377  and  _380
REMARK  149  A    between atoms: _380  and  _381
REMARK  150  A    between atoms: _386  and  _388
REMARK  151  A    between atoms: _388  and  _389
REMARK  152  A    between atoms: _391  and  _393
REMARK  153  A    between atoms: _393  and  _394
REMARK  154  A    between atoms: _393  and  _396
REMARK  155  A    between atoms: _399  and  _401
REMARK  156  A    between atoms: _401  and  _402
REMARK  157  A    between atoms: _405  and  _407
REMARK  158  A    between atoms: _407  and  _408
REMARK  159  A    between atoms: _407  and  _410
REMARK  160  A    between atoms: _410  and  _411
REMARK  161  A    between atoms: _416  and  _418
REMARK  162  A    between atoms: _418  and  _419
REMARK  163  A    between atoms: _418  and  _421
REMARK  164  A    between atoms: _421  and  _422
REMARK  165  A    between atoms: _428  and  _430
REMARK  166  A    between atoms: _430  and  _431
REMARK  167  A    between atoms: _430  and  _433
REMARK  168  A    between atoms: _433  and  _434
REMARK  169  A    between atoms: _434  and  _435
REMARK  170  A    between atoms: _435  and  _436
REMARK  171  A    between atoms: _436  and  _437
REMARK  172  A    between atoms: _441  and  _443
REMARK  173  A    between atoms: _443  and  _444
REMARK  174  A    between atoms: _443  and  _446
REMARK  175  A    between atoms: _446  and  _447
REMARK  176  A    between atoms: _450  and  _452
REMARK  177  A    between atoms: _452  and  _453
REMARK  178  A    between atoms: _452  and  _455
REMARK  179  A    between atoms: _455  and  _456
REMARK  180  A    between atoms: _461  and  _463
REMARK  181  A    between atoms: _463  and  _464
REMARK  182  A    between atoms: _466  and  _468
REMARK  183  A    between atoms: _468  and  _469
REMARK  184  A    between atoms: _468  and  _471
REMARK  185  A    between atoms: _471  and  _472
REMARK  186  A    between atoms: _475  and  _477
REMARK  187  A    between atoms: _477  and  _478
REMARK  188  A    between atoms: _477  and  _480
REMARK  189  A    between atoms: _480  and  _481
REMARK  190  A    between atoms: _481  and  _482
REMARK  191  A    between atoms: _482  and  _483
REMARK  192  A    between atoms: _483  and  _484
REMARK  193  A    between atoms: _488  and  _490
REMARK  194  A    between atoms: _490  and  _491
REMARK  195  A    between atoms: _490  and  _493
REMARK  196  A    between atoms: _493  and  _494
REMARK  197  A    between atoms: _494  and  _495
REMARK  198  A    between atoms: _495  and  _496
REMARK  199  A    between atoms: _505  and  _507
REMARK  200  A    between atoms: _507  and  _508
REMARK  201  A    between atoms: _507  and  _510
REMARK  202  A    between atoms: _510  and  _511
REMARK  203  A    between atoms: _516  and  _518
REMARK  204  A    between atoms: _518  and  _519
REMARK  205  A    between atoms: _518  and  _521
REMARK  206  A    between atoms: _521  and  _522
REMARK  207  A    between atoms: _527  and  _528
REMARK  208  A    between atoms: _530  and  _532
REMARK  209  A    between atoms: _532  and  _533
REMARK  210  A    between atoms: _532  and  _535
REMARK  211  A    between atoms: _535  and  _536
REMARK  212  A    between atoms: _536  and  _537
REMARK  213  A    between atoms: _537  and  _538
REMARK  214  A    between atoms: _538  and  _539
REMARK  215  A    between atoms: _543  and  _545
REMARK  216  A    between atoms: _545  and  _546
REMARK  217  A    between atoms: _545  and  _548
REMARK  218  A    between atoms: _548  and  _549
REMARK  219  A    between atoms: _551  and  _553
REMARK  220  A    between atoms: _553  and  _554
REMARK  221  A    between atoms: _553  and  _556
REMARK  222  A    between atoms: _556  and  _557
REMARK  223  A    between atoms: _560  and  _562
REMARK  224  A    between atoms: _562  and  _563
REMARK  225  A    between atoms: _562  and  _565
REMARK  226  A    between atoms: _565  and  _566
REMARK  227  A    between atoms: _566  and  _567
REMARK  228  A    between atoms: _570  and  _572
REMARK  229  A    between atoms: _572  and  _573
REMARK  230  A    between atoms: _576  and  _578
REMARK  231  A    between atoms: _578  and  _579
REMARK  232  A    between atoms: _578  and  _581
REMARK  233  A    between atoms: _581  and  _582
REMARK  234  A    between atoms: _584  and  _586
REMARK  235  A    between atoms: _586  and  _587
REMARK  236  A    between atoms: _589  and  _591
REMARK  237  A    between atoms: _591  and  _592
REMARK  238  A    between atoms: _591  and  _594
REMARK  239  A    between atoms: _594  and  _595
REMARK  240  A    between atoms: _598  and  _600
REMARK  241  A    between atoms: _600  and  _601
REMARK  242  A    between atoms: _603  and  _605
REMARK  243  A    between atoms: _605  and  _606
REMARK  244  A    between atoms: _605  and  _608
REMARK  245  A    between atoms: _608  and  _609
REMARK  246  A    between atoms: _614  and  _616
REMARK  247  A    between atoms: _616  and  _617
REMARK  248  A    between atoms: _616  and  _619
REMARK  249  A    between atoms: _619  and  _620
REMARK  250  A    between atoms: _620  and  _621
REMARK  251  A    between atoms: _628  and  _629
REMARK  252  A    between atoms: _629  and  _645
REMARK  253  A    between atoms: _630  and  _632
REMARK  254  A    between atoms: _632  and  _633
REMARK  255  A    between atoms: _633  and  _634
REMARK  256  A    between atoms: _638  and  _640
REMARK  257  A    between atoms: _640  and  _641
REMARK  258  A    between atoms: _640  and  _648
REMARK  259  A    between atoms: _641  and  _642
REMARK  260  A    between atoms: _642  and  _643
REMARK  261  A    between atoms: _643  and  _644
REMARK  262  A    between atoms: _644  and  _645
REMARK  263  A    between atoms: _650  and  _652
REMARK  264  A    between atoms: _652  and  _653
REMARK  265  A    between atoms: _652  and  _655
REMARK  266  A    between atoms: _655  and  _656
REMARK  267  A    between atoms: _659  and  _661
REMARK  268  A    between atoms: _661  and  _662
REMARK  269  A    between atoms: _664  and  _666
REMARK  270  A    between atoms: _666  and  _667
REMARK  271  A    between atoms: _670  and  _672
REMARK  272  A    between atoms: _672  and  _673
REMARK  273  A    between atoms: _672  and  _675
REMARK  274  A    between atoms: _675  and  _676
REMARK  275  A    between atoms: _679  and  _681
REMARK  276  A    between atoms: _681  and  _682
REMARK  277  A    between atoms: _681  and  _684
REMARK  278  A    between atoms: _684  and  _685
REMARK  279  A    between atoms: _690  and  _691
REMARK                            x       y       z     vdW  Elec       q    Type
REMARK                         _______ _______ _______ _____ _____    ______ ____
ROOT
ATOM      1  C   TYR A   1      33.476  32.007  20.731  0.00  0.00    +0.239 C 
ATOM      2  N   LYS A   2      32.419  32.134  21.525  0.00  0.00    -0.298 N 
ATOM      3  H   LYS A   2      32.530  32.585  22.455  0.00  0.00    +0.150 HD
ATOM      4  O   TYR A   1      33.377  31.571  19.596  0.00  0.00    -0.274 OA
ENDROOT
BRANCH   1   5
ATOM      5  CA  TYR A   1      34.848  32.516  21.235  0.00  0.00    +0.149 C 
BRANCH   5   6
ATOM      6  N   TYR A   1      34.727  33.628  22.181  0.00  0.00    -0.238 NA
ATOM      7  H   TYR A   1      35.073  33.538  23.158  0.00  0.00    +0.142 HD
ENDBRANCH   5   6
BRANCH   5   8
ATOM      8  CB  TYR A   1      35.797  31.404  21.729  0.00  0.00    +0.053 C 
BRANCH   8   9
ATOM      9  CG  TYR A   1      35.172  30.286  22.517  0.00  0.00    -0.020 A 
ATOM     10  CD2 TYR A   1      35.204  30.290  23.924  0.00  0.00    -0.001 A 
ATOM     11  CE2 TYR A   1      34.635  29.261  24.660  0.00  0.00    +0.036 A 
ATOM     12  CZ  TYR A   1      34.051  28.185  23.993  0.00  0.00    +0.134 A 
ATOM     13  CE1 TYR A   1      34.056  28.141  22.593  0.00  0.00    +0.036 A 
ATOM     14  CD1 TYR A   1      34.624  29.185  21.871  0.00  0.00    -0.001 A 
BRANCH  12  15
ATOM     15  OH  TYR A   1      33.509  27.142  24.725  0.00  0.00    -0.506 OA
ATOM     16  HH  TYR A   1      33.138  26.464  24.106  0.00  0.00    +0.292 HD
ENDBRANCH  12  15
ENDBRANCH   8   9
ENDBRANCH   5   8
ENDBRANCH   1   5
BRANCH   2  17
ATOM     17  CA  LYS A   2      31.106  31.652  21.115  0.00  0.00    +0.137 C 
BRANCH  17  18
ATOM     18  C   LYS A   2      30.386  32.612  20.145  0.00  0.00    +0.227 C 
ATOM     19  O   LYS A   2      29.364  32.241  19.533  0.00  0.00    -0.286 OA
ENDBRANCH  17  18
BRANCH  17  20
ATOM     20  CB  LYS A   2      30.253  31.341  22.358  0.00  0.00    +0.028 C 
BRANCH  20  21
ATOM     21  CG  LYS A   2      30.720  30.096  23.145  0.00  0.00    -0.000 C 
BRANCH  21  22
ATOM     22  CD  LYS A   2      30.212  30.146  24.613  0.00  0.00    -0.024 C 
BRANCH  22  23
ATOM     23  CE  LYS A   2      30.781  29.054  25.509  0.00  0.00    -0.086 C 
BRANCH  23  24
ATOM     24  NZ  LYS A   2      30.421  27.723  24.926  0.00  0.00    +0.380 N 
ATOM     25  HZ1 LYS A   2      30.804  26.967  25.529  0.00  0.00    -0.089 HD
ATOM     26  HZ2 LYS A   2      29.386  27.637  24.875  0.00  0.00    -0.089 HD
ATOM     27  HZ3 LYS A   2      30.824  27.644  23.971  0.00  0.00    -0.089 HD
ENDBRANCH  23  24
ENDBRANCH  22  23
ENDBRANCH  21  22
ENDBRANCH  20  21
ENDBRANCH  17  20
ENDBRANCH   2  17
TORSDOF 12
REMARK  Name = ../refined-set-2016/4eky/4eky_pocket.pdb
REMARK  279 active torsions:
REMARK  status: ('A' for Active; 'I' for Inactive)
REMARK    1  A    between atoms: _1  and  _3
REMARK    2  A    between atoms: _3  and  _4
REMARK    3  A    between atoms: _3  and  _6
REMARK    4  A    between atoms: _6  and  _7
REMARK    5  A    between atoms: _12  and  _13
REMARK    6  A    between atoms: _15  and  _17
REMARK    7  A    between atoms: _17  and  _18
REMARK    8  A    between atoms: _17  and  _20
REMARK    9  A    between atoms: _20  and  _21
REMARK   10  A    between atoms: _21  and  _22
REMARK   11  A    between atoms: _25  and  _27
REMARK   12  A    between atoms: _27  and  _28
REMARK   13  A    between atoms: _27  and  _30
REMARK   14  A    between atoms: _30  and  _31
REMARK   15  A    between atoms: _36  and  _37
REMARK   16  A    between atoms: _39  and  _41
REMARK   17  A    between atoms: _41  and  _42
REMARK   18  A    between atoms: _41  and  _44
REMARK   19  A    between atoms: _44  and  _45
REMARK   20  A    between atoms: _50  and  _52
REMARK   21  A    between atoms: _52  and  _53
REMARK   22  A    between atoms: _55  and  _57
REMARK   23  A    between atoms: _57  and  _58
REMARK   24  A    between atoms: _60  and  _62
REMARK   25  A    between atoms: _62  and  _63
REMARK   26  A    between atoms: _62  and  _65
REMARK   27  A    between atoms: _65  and  _66
REMARK   28  A    between atoms: _69  and  _71
REMARK   29  A    between atoms: _71  and  _72
REMARK   30  A    between atoms: _74  and  _76
REMARK   31  A    between atoms: _76  and  _77
REMARK   32  A    between atoms: _76  and  _79
REMARK   33  A    between atoms: _79  and  _80
REMARK   34  A    between atoms: _80  and  _81
REMARK   35  A    between atoms: _81  and  _82
REMARK   36  A    between atoms: _91  and  _93
REMARK   37  A    between atoms: _93  and  _94
REMARK   38  A    between atoms: _93  and  _96
REMARK   39  A    between atoms: _96  and  _97
REMARK   40  A    between atoms: _100  and  _102
REMARK   41  A    between atoms: _102  and  _103
REMARK   42  A    between atoms: _106  and  _108
REMARK   43  A    between atoms: _108  and  _109
REMARK   44  A    between atoms: _108  and  _111
REMARK   45  A    between atoms: _111  and  _112
REMARK   46  A    between atoms: _118  and  _120
REMARK   47  A    between atoms: _120  and  _121
REMARK   48  A    between atoms: _120  and  _123
REMARK   49  A    between atoms: _123  and  _124
REMARK   50  A    between atoms: _129  and  _131
REMARK   51  A    between atoms: _131  and  _132
REMARK   52  A    between atoms: _131  and  _134
REMARK   53  A    between atoms: _134  and  _135
REMARK   54  A    between atoms: _138  and  _140
REMARK   55  A    between atoms: _140  and  _141
REMARK   56  A    between atoms: _140  and  _143
REMARK   57  A    between atoms: _143  and  _144
REMARK   58  A    between atoms: _149  and  _151
REMARK   59  A    between atoms: _151  and  _152
REMARK   60  A    between atoms: _151  and  _154
REMARK   61  A    between atoms: _154  and  _155
REMARK   62  A    between atoms: _161  and  _163
REMARK   63  A    between atoms: _163  and  _164
REMARK   64  A    between atoms: _163  and  _166
REMARK   65  A    between atoms: _166  and  _167
REMARK   66  A    between atoms: _173  and  _175
REMARK   67  A    between atoms: _175  and  _176
REMARK   68  A    between atoms: _175  and  _178
REMARK   69  A    between atoms: _178  and  _179
REMARK   70  A    between atoms: _179  and  _180
REMARK   71  A    between atoms: _180  and  _181
REMARK   72  A    between atoms: _190  and  _192
REMARK   73  A    between atoms: _192  and  _193
REMARK   74  A    between atoms: _192  and  _195
REMARK   75  A    between atoms: _195  and  _196
REMARK   76  A    between atoms: _196  and  _197
REMARK   77  A    between atoms: _200  and  _202
REMARK   78  A    between atoms: _202  and  _203
REMARK   79  A    between atoms: _202  and  _205
REMARK   80  A    between atoms: _205  and  _206
REMARK   81  A    between atoms: _211  and  _213
REMARK   82  A    between atoms: _213  and  _214
REMARK   83  A    between atoms: _213  and  _216
REMARK   84  A    between atoms: _216  and  _217
REMARK   85  A    between atoms: _220  and  _222
REMARK   86  A    between atoms: _222  and  _223
REMARK   87  A    between atoms: _222  and  _225
REMARK   88  A    between atoms: _225  and  _226
REMARK   89  A    between atoms: _229  and  _231
REMARK   90  A    between atoms: _231  and  _232
REMARK   91  A    between atoms: _231  and  _234
REMARK   92  A    between atoms: _234  and  _235
REMARK   93  A    between atoms: _241  and  _242
REMARK   94  A    between atoms: _247  and  _249
REMARK   95  A    between atoms: _249  and  _250
REMARK   96  A    between atoms: _249  and  _252
REMARK   97  A    between atoms: _252  and  _253
REMARK   98  A    between atoms: _258  and  _259
REMARK   99  A    between atoms: _261  and  _263
REMARK  100  A    between atoms: _263  and  _264
REMARK  101  A    between atoms: _263  and  _266
REMARK  102  A    between atoms: _266  and  _267
REMARK  103  A    between atoms: _270  and  _272
REMARK  104  A    between atoms: _272  and  _273
REMARK  105  A    between atoms: _272  and  _275
REMARK  106  A    between atoms: _275  and  _276
REMARK  107  A    between atoms: _281  and  _283
REMARK  108  A    between atoms: _283  and  _284
REMARK  109  A    between atoms: _283  and  _286
REMARK  110  A    between atoms: _286  and  _287
REMARK  111  A    between atoms: _292  and  _294
REMARK  112  A    between atoms: _294  and  _295
REMARK  113  A    between atoms: _294  and  _297
REMARK  114  A    between atoms: _297  and  _298
REMARK  115  A    between atoms: _301  and  _303
REMARK  116  A    between atoms: _303  and  _304
REMARK  117  A    between atoms: _303  and  _306
REMARK  118  A    between atoms: _309  and  _311
REMARK  119  A    between atoms: _311  and  _312
REMARK  120  A    between atoms: _311  and  _314
REMARK  121  A    between atoms: _314  and  _315
REMARK  122  A    between atoms: _319  and  _320
REMARK  123  A    between atoms: _325  and  _327
REMARK  124  A    between atoms: _327  and  _328
REMARK  125  A    between atoms: _327  and  _330
REMARK  126  A    between atoms: _330  and  _331
REMARK  127  A    between atoms: _331  and  _332
REMARK  128  A    between atoms: _335  and  _337
REMARK  129  A    between atoms: _337  and  _338
REMARK  130  A    between atoms: _341  and  _343
REMARK  131  A    between atoms: _343  and  _344
REMARK  132  A    between atoms: _343  and  _346
REMARK  133  A    between atoms: _346  and  _347
REMARK  134  A    between atoms: _350  and  _352
REMARK  135  A    between atoms: _352  and  _353
REMARK  136  A    between atoms: _352  and  _355
REMARK  137  A    between atoms: _355  and  _356
REMARK  138  A    between atoms: _356  and  _357
REMARK  139  A    between atoms: _360  and  _362
REMARK  140  A    between atoms: _362  and  _363
REMARK  141  A    between atoms: _362  and  _365
REMARK  142  A    between atoms: _365  and  _366
REMARK  143  A    between atoms: _366  and  _367
REMARK  144  A    between atoms: _369  and  _371
REMARK  145  A    between atoms: _371  and  _372
REMARK  146  A    between atoms: _375  and  _377
REMARK  147  A    between atoms: _377  and  _378
REMARK  148  A    between atoms: _377  and  _380
REMARK  149  A    between atoms: _380  and  _381
REMARK  150  A    between atoms: _386  and  _388
REMARK  151  A    between atoms: _388  and  _389
REMARK  152  A    between atoms: _391  and  _393
REMARK  153  A    between atoms: _393  and  _394
REMARK  154  A    between atoms: _393  and  _396
REMARK  155  A    between atoms: _399  and  _401
REMARK  156  A    between atoms: _401  and  _402
REMARK  157  A    between atoms: _405  and  _407
REMARK  158  A    between atoms: _407  and  _408
REMARK  159  A    between atoms: _407  and  _410
REMARK  160  A    between atoms: _410  and  _411
REMARK  161  A    between atoms: _416  and  _418
REMARK  162  A    between atoms: _418  and  _419
REMARK  163  A    between atoms: _418  and  _421
REMARK  164  A    between atoms: _421  and  _422
REMARK  165  A    between atoms: _428  and  _430
REMARK  166  A    between atoms: _430  and  _431
REMARK  167  A    between atoms: _430  and  _433
REMARK  168  A    between atoms: _433  and  _434
REMARK  169  A    between atoms: _434  and  _435
REMARK  170  A    between atoms: _435  and  _436
REMARK  171  A    between atoms: _436  and  _437
REMARK  172  A    between atoms: _441  and  _443
REMARK  173  A    between atoms: _443  and  _444
REMARK  174  A    between atoms: _443  and  _446
REMARK  175  A    between atoms: _446  and  _447
REMARK  176  A    between atoms: _450  and  _452
REMARK  177  A    between atoms: _452  and  _453
REMARK  178  A    between atoms: _452  and  _455
REMARK  179  A    between atoms: _455  and  _456
REMARK  180  A    between atoms: _461  and  _463
REMARK  181  A    between atoms: _463  and  _464
REMARK  182  A    between atoms: _466  and  _468
REMARK  183  A    between atoms: _468  and  _469
REMARK  184  A    between atoms: _468  and  _471
REMARK  185  A    between atoms: _471  and  _472
REMARK  186  A    between atoms: _475  and  _477
REMARK  187  A    between atoms: _477  and  _478
REMARK  188  A    between atoms: _477  and  _480
REMARK  189  A    between atoms: _480  and  _481
REMARK  190  A    between atoms: _481  and  _482
REMARK  191  A    between atoms: _482  and  _483
REMARK  192  A    between atoms: _483  and  _484
REMARK  193  A    between atoms: _488  and  _490
REMARK  194  A    between atoms: _490  and  _491
REMARK  195  A    between atoms: _490  and  _493
REMARK  196  A    between atoms: _493  and  _494
REMARK  197  A    between atoms: _494  and  _495
REMARK  198  A    between atoms: _495  and  _496
REMARK  199  A    between atoms: _505  and  _507
REMARK  200  A    between atoms: _507  and  _508
REMARK  201  A    between atoms: _507  and  _510
REMARK  202  A    between atoms: _510  and  _511
REMARK  203  A    between atoms: _516  and  _518
REMARK  204  A    between atoms: _518  and  _519
REMARK  205  A    between atoms: _518  and  _521
REMARK  206  A    between atoms: _521  and  _522
REMARK  207  A    between atoms: _527  and  _528
REMARK  208  A    between atoms: _530  and  _532
REMARK  209  A    between atoms: _532  and  _533
REMARK  210  A    between atoms: _532  and  _535
REMARK  211  A    between atoms: _535  and  _536
REMARK  212  A    between atoms: _536  and  _537
REMARK  213  A    between atoms: _537  and  _538
REMARK  214  A    between atoms: _538  and  _539
REMARK  215  A    between atoms: _543  and  _545
REMARK  216  A    between atoms: _545  and  _546
REMARK  217  A    between atoms: _545  and  _548
REMARK  218  A    between atoms: _548  and  _549
REMARK  219  A    between atoms: _551  and  _553
REMARK  220  A    between atoms: _553  and  _554
REMARK  221  A    between atoms: _553  and  _556
REMARK  222  A    between atoms: _556  and  _557
REMARK  223  A    between atoms: _560  and  _562
REMARK  224  A    between atoms: _562  and  _563
REMARK  225  A    between atoms: _562  and  _565
REMARK  226  A    between atoms: _565  and  _566
REMARK  227  A    between atoms: _566  and  _567
REMARK  228  A    between atoms: _570  and  _572
REMARK  229  A    between atoms: _572  and  _573
REMARK  230  A    between atoms: _576  and  _578
REMARK  231  A    between atoms: _578  and  _579
REMARK  232  A    between atoms: _578  and  _581
REMARK  233  A    between atoms: _581  and  _582
REMARK  234  A    between atoms: _584  and  _586
REMARK  235  A    between atoms: _586  and  _587
REMARK  236  A    between atoms: _589  and  _591
REMARK  237  A    between atoms: _591  and  _592
REMARK  238  A    between atoms: _591  and  _594
REMARK  239  A    between atoms: _594  and  _595
REMARK  240  A    between atoms: _598  and  _600
REMARK  241  A    between atoms: _600  and  _601
REMARK  242  A    between atoms: _603  and  _605
REMARK  243  A    between atoms: _605  and  _606
REMARK  244  A    between atoms: _605  and  _608
REMARK  245  A    between atoms: _608  and  _609
REMARK  246  A    between atoms: _614  and  _616
REMARK  247  A    between atoms: _616  and  _617
REMARK  248  A    between atoms: _616  and  _619
REMARK  249  A    between atoms: _619  and  _620
REMARK  250  A    between atoms: _620  and  _621
REMARK  251  A    between atoms: _628  and  _629
REMARK  252  A    between atoms: _629  and  _645
REMARK  253  A    between atoms: _630  and  _632
REMARK  254  A    between atoms: _632  and  _633
REMARK  255  A    between atoms: _633  and  _634
REMARK  256  A    between atoms: _638  and  _640
REMARK  257  A    between atoms: _640  and  _641
REMARK  258  A    between atoms: _640  and  _648
REMARK  259  A    between atoms: _641  and  _642
REMARK  260  A    between atoms: _642  and  _643
REMARK  261  A    between atoms: _643  and  _644
REMARK  262  A    between atoms: _644  and  _645
REMARK  263  A    between atoms: _650  and  _652
REMARK  264  A    between atoms: _652  and  _653
REMARK  265  A    between atoms: _652  and  _655
REMARK  266  A    between atoms: _655  and  _656
REMARK  267  A    between atoms: _659  and  _661
REMARK  268  A    between atoms: _661  and  _662
REMARK  269  A    between atoms: _664  and  _666
REMARK  270  A    between atoms: _666  and  _667
REMARK  271  A    between atoms: _670  and  _672
REMARK  272  A    between atoms: _672  and  _673
REMARK  273  A    between atoms: _672  and  _675
REMARK  274  A    between atoms: _675  and  _676
REMARK  275  A    between atoms: _679  and  _681
REMARK  276  A    between atoms: _681  and  _682
REMARK  277  A    between atoms: _681  and  _684
REMARK  278  A    between atoms: _684  and  _685
REMARK  279  A    between atoms: _690  and  _691
REMARK                            x       y       z     vdW  Elec       q    Type
REMARK                         _______ _______ _______ _____ _____    ______ ____
ROOT
ATOM      1  CA  SER A   1      31.925  29.488  17.438  0.00  0.00    +0.163 C 
ENDROOT
BRANCH   1   2
ATOM      2  N   SER A   1      30.526  29.346  17.034  0.00  0.00    -0.237 NA
ATOM      3  H   SER A   1      29.983  28.549  17.423  0.00  0.00    +0.142 HD
ENDBRANCH   1   2
BRANCH   1   4
ATOM      4  C   SER A   1      32.851  29.469  16.210  0.00  0.00    +0.227 C 
ATOM      5  O   SER A   1      32.614  28.764  15.263  0.00  0.00    -0.287 OA
ENDBRANCH   1   4
BRANCH   1   6
ATOM      6  CB  SER A   1      32.272  28.335  18.334  0.00  0.00    +0.162 C 
BRANCH   6   7
ATOM      7  OG  SER A   1      31.835  27.149  17.689  0.00  0.00    -0.380 OA
ATOM      8  H   SER A   1      32.294  27.061  16.816  0.00  0.00    +0.211 HD
ENDBRANCH   6   7
ENDBRANCH   1   6
TORSDOF 4
REMARK  Name = ../refined-set-2016/4eky/4eky_pocket.pdb
REMARK  279 active torsions:
REMARK  status: ('A' for Active; 'I' for Inactive)
REMARK    1  A    between atoms: _1  and  _3
REMARK    2  A    between atoms: _3  and  _4
REMARK    3  A    between atoms: _3  and  _6
REMARK    4  A    between atoms: _6  and  _7
REMARK    5  A    between atoms: _12  and  _13
REMARK    6  A    between atoms: _15  and  _17
REMARK    7  A    between atoms: _17  and  _18
REMARK    8  A    between atoms: _17  and  _20
REMARK    9  A    between atoms: _20  and  _21
REMARK   10  A    between atoms: _21  and  _22
REMARK   11  A    between atoms: _25  and  _27
REMARK   12  A    between atoms: _27  and  _28
REMARK   13  A    between atoms: _27  and  _30
REMARK   14  A    between atoms: _30  and  _31
REMARK   15  A    between atoms: _36  and  _37
REMARK   16  A    between atoms: _39  and  _41
REMARK   17  A    between atoms: _41  and  _42
REMARK   18  A    between atoms: _41  and  _44
REMARK   19  A    between atoms: _44  and  _45
REMARK   20  A    between atoms: _50  and  _52
REMARK   21  A    between atoms: _52  and  _53
REMARK   22  A    between atoms: _55  and  _57
REMARK   23  A    between atoms: _57  and  _58
REMARK   24  A    between atoms: _60  and  _62
REMARK   25  A    between atoms: _62  and  _63
REMARK   26  A    between atoms: _62  and  _65
REMARK   27  A    between atoms: _65  and  _66
REMARK   28  A    between atoms: _69  and  _71
REMARK   29  A    between atoms: _71  and  _72
REMARK   30  A    between atoms: _74  and  _76
REMARK   31  A    between atoms: _76  and  _77
REMARK   32  A    between atoms: _76  and  _79
REMARK   33  A    between atoms: _79  and  _80
REMARK   34  A    between atoms: _80  and  _81
REMARK   35  A    between atoms: _81  and  _82
REMARK   36  A    between atoms: _91  and  _93
REMARK   37  A    between atoms: _93  and  _94
REMARK   38  A    between atoms: _93  and  _96
REMARK   39  A    between atoms: _96  and  _97
REMARK   40  A    between atoms: _100  and  _102
REMARK   41  A    between atoms: _102  and  _103
REMARK   42  A    between atoms: _106  and  _108
REMARK   43  A    between atoms: _108  and  _109
REMARK   44  A    between atoms: _108  and  _111
REMARK   45  A    between atoms: _111  and  _112
REMARK   46  A    between atoms: _118  and  _120
REMARK   47  A    between atoms: _120  and  _121
REMARK   48  A    between atoms: _120  and  _123
REMARK   49  A    between atoms: _123  and  _124
REMARK   50  A    between atoms: _129  and  _131
REMARK   51  A    between atoms: _131  and  _132
REMARK   52  A    between atoms: _131  and  _134
REMARK   53  A    between atoms: _134  and  _135
REMARK   54  A    between atoms: _138  and  _140
REMARK   55  A    between atoms: _140  and  _141
REMARK   56  A    between atoms: _140  and  _143
REMARK   57  A    between atoms: _143  and  _144
REMARK   58  A    between atoms: _149  and  _151
REMARK   59  A    between atoms: _151  and  _152
REMARK   60  A    between atoms: _151  and  _154
REMARK   61  A    between atoms: _154  and  _155
REMARK   62  A    between atoms: _161  and  _163
REMARK   63  A    between atoms: _163  and  _164
REMARK   64  A    between atoms: _163  and  _166
REMARK   65  A    between atoms: _166  and  _167
REMARK   66  A    between atoms: _173  and  _175
REMARK   67  A    between atoms: _175  and  _176
REMARK   68  A    between atoms: _175  and  _178
REMARK   69  A    between atoms: _178  and  _179
REMARK   70  A    between atoms: _179  and  _180
REMARK   71  A    between atoms: _180  and  _181
REMARK   72  A    between atoms: _190  and  _192
REMARK   73  A    between atoms: _192  and  _193
REMARK   74  A    between atoms: _192  and  _195
REMARK   75  A    between atoms: _195  and  _196
REMARK   76  A    between atoms: _196  and  _197
REMARK   77  A    between atoms: _200  and  _202
REMARK   78  A    between atoms: _202  and  _203
REMARK   79  A    between atoms: _202  and  _205
REMARK   80  A    between atoms: _205  and  _206
REMARK   81  A    between atoms: _211  and  _213
REMARK   82  A    between atoms: _213  and  _214
REMARK   83  A    between atoms: _213  and  _216
REMARK   84  A    between atoms: _216  and  _217
REMARK   85  A    between atoms: _220  and  _222
REMARK   86  A    between atoms: _222  and  _223
REMARK   87  A    between atoms: _222  and  _225
REMARK   88  A    between atoms: _225  and  _226
REMARK   89  A    between atoms: _229  and  _231
REMARK   90  A    between atoms: _231  and  _232
REMARK   91  A    between atoms: _231  and  _234
REMARK   92  A    between atoms: _234  and  _235
REMARK   93  A    between atoms: _241  and  _242
REMARK   94  A    between atoms: _247  and  _249
REMARK   95  A    between atoms: _249  and  _250
REMARK   96  A    between atoms: _249  and  _252
REMARK   97  A    between atoms: _252  and  _253
REMARK   98  A    between atoms: _258  and  _259
REMARK   99  A    between atoms: _261  and  _263
REMARK  100  A    between atoms: _263  and  _264
REMARK  101  A    between atoms: _263  and  _266
REMARK  102  A    between atoms: _266  and  _267
REMARK  103  A    between atoms: _270  and  _272
REMARK  104  A    between atoms: _272  and  _273
REMARK  105  A    between atoms: _272  and  _275
REMARK  106  A    between atoms: _275  and  _276
REMARK  107  A    between atoms: _281  and  _283
REMARK  108  A    between atoms: _283  and  _284
REMARK  109  A    between atoms: _283  and  _286
REMARK  110  A    between atoms: _286  and  _287
REMARK  111  A    between atoms: _292  and  _294
REMARK  112  A    between atoms: _294  and  _295
REMARK  113  A    between atoms: _294  and  _297
REMARK  114  A    between atoms: _297  and  _298
REMARK  115  A    between atoms: _301  and  _303
REMARK  116  A    between atoms: _303  and  _304
REMARK  117  A    between atoms: _303  and  _306
REMARK  118  A    between atoms: _309  and  _311
REMARK  119  A    between atoms: _311  and  _312
REMARK  120  A    between atoms: _311  and  _314
REMARK  121  A    between atoms: _314  and  _315
REMARK  122  A    between atoms: _319  and  _320
REMARK  123  A    between atoms: _325  and  _327
REMARK  124  A    between atoms: _327  and  _328
REMARK  125  A    between atoms: _327  and  _330
REMARK  126  A    between atoms: _330  and  _331
REMARK  127  A    between atoms: _331  and  _332
REMARK  128  A    between atoms: _335  and  _337
REMARK  129  A    between atoms: _337  and  _338
REMARK  130  A    between atoms: _341  and  _343
REMARK  131  A    between atoms: _343  and  _344
REMARK  132  A    between atoms: _343  and  _346
REMARK  133  A    between atoms: _346  and  _347
REMARK  134  A    between atoms: _350  and  _352
REMARK  135  A    between atoms: _352  and  _353
REMARK  136  A    between atoms: _352  and  _355
REMARK  137  A    between atoms: _355  and  _356
REMARK  138  A    between atoms: _356  and  _357
REMARK  139  A    between atoms: _360  and  _362
REMARK  140  A    between atoms: _362  and  _363
REMARK  141  A    between atoms: _362  and  _365
REMARK  142  A    between atoms: _365  and  _366
REMARK  143  A    between atoms: _366  and  _367
REMARK  144  A    between atoms: _369  and  _371
REMARK  145  A    between atoms: _371  and  _372
REMARK  146  A    between atoms: _375  and  _377
REMARK  147  A    between atoms: _377  and  _378
REMARK  148  A    between atoms: _377  and  _380
REMARK  149  A    between atoms: _380  and  _381
REMARK  150  A    between atoms: _386  and  _388
REMARK  151  A    between atoms: _388  and  _389
REMARK  152  A    between atoms: _391  and  _393
REMARK  153  A    between atoms: _393  and  _394
REMARK  154  A    between atoms: _393  and  _396
REMARK  155  A    between atoms: _399  and  _401
REMARK  156  A    between atoms: _401  and  _402
REMARK  157  A    between atoms: _405  and  _407
REMARK  158  A    between atoms: _407  and  _408
REMARK  159  A    between atoms: _407  and  _410
REMARK  160  A    between atoms: _410  and  _411
REMARK  161  A    between atoms: _416  and  _418
REMARK  162  A    between atoms: _418  and  _419
REMARK  163  A    between atoms: _418  and  _421
REMARK  164  A    between atoms: _421  and  _422
REMARK  165  A    between atoms: _428  and  _430
REMARK  166  A    between atoms: _430  and  _431
REMARK  167  A    between atoms: _430  and  _433
REMARK  168  A    between atoms: _433  and  _434
REMARK  169  A    between atoms: _434  and  _435
REMARK  170  A    between atoms: _435  and  _436
REMARK  171  A    between atoms: _436  and  _437
REMARK  172  A    between atoms: _441  and  _443
REMARK  173  A    between atoms: _443  and  _444
REMARK  174  A    between atoms: _443  and  _446
REMARK  175  A    between atoms: _446  and  _447
REMARK  176  A    between atoms: _450  and  _452
REMARK  177  A    between atoms: _452  and  _453
REMARK  178  A    between atoms: _452  and  _455
REMARK  179  A    between atoms: _455  and  _456
REMARK  180  A    between atoms: _461  and  _463
REMARK  181  A    between atoms: _463  and  _464
REMARK  182  A    between atoms: _466  and  _468
REMARK  183  A    between atoms: _468  and  _469
REMARK  184  A    between atoms: _468  and  _471
REMARK  185  A    between atoms: _471  and  _472
REMARK  186  A    between atoms: _475  and  _477
REMARK  187  A    between atoms: _477  and  _478
REMARK  188  A    between atoms: _477  and  _480
REMARK  189  A    between atoms: _480  and  _481
REMARK  190  A    between atoms: _481  and  _482
REMARK  191  A    between atoms: _482  and  _483
REMARK  192  A    between atoms: _483  and  _484
REMARK  193  A    between atoms: _488  and  _490
REMARK  194  A    between atoms: _490  and  _491
REMARK  195  A    between atoms: _490  and  _493
REMARK  196  A    between atoms: _493  and  _494
REMARK  197  A    between atoms: _494  and  _495
REMARK  198  A    between atoms: _495  and  _496
REMARK  199  A    between atoms: _505  and  _507
REMARK  200  A    between atoms: _507  and  _508
REMARK  201  A    between atoms: _507  and  _510
REMARK  202  A    between atoms: _510  and  _511
REMARK  203  A    between atoms: _516  and  _518
REMARK  204  A    between atoms: _518  and  _519
REMARK  205  A    between atoms: _518  and  _521
REMARK  206  A    between atoms: _521  and  _522
REMARK  207  A    between atoms: _527  and  _528
REMARK  208  A    between atoms: _530  and  _532
REMARK  209  A    between atoms: _532  and  _533
REMARK  210  A    between atoms: _532  and  _535
REMARK  211  A    between atoms: _535  and  _536
REMARK  212  A    between atoms: _536  and  _537
REMARK  213  A    between atoms: _537  and  _538
REMARK  214  A    between atoms: _538  and  _539
REMARK  215  A    between atoms: _543  and  _545
REMARK  216  A    between atoms: _545  and  _546
REMARK  217  A    between atoms: _545  and  _548
REMARK  218  A    between atoms: _548  and  _549
REMARK  219  A    between atoms: _551  and  _553
REMARK  220  A    between atoms: _553  and  _554
REMARK  221  A    between atoms: _553  and  _556
REMARK  222  A    between atoms: _556  and  _557
REMARK  223  A    between atoms: _560  and  _562
REMARK  224  A    between atoms: _562  and  _563
REMARK  225  A    between atoms: _562  and  _565
REMARK  226  A    between atoms: _565  and  _566
REMARK  227  A    between atoms: _566  and  _567
REMARK  228  A    between atoms: _570  and  _572
REMARK  229  A    between atoms: _572  and  _573
REMARK  230  A    between atoms: _576  and  _578
REMARK  231  A    between atoms: _578  and  _579
REMARK  232  A    between atoms: _578  and  _581
REMARK  233  A    between atoms: _581  and  _582
REMARK  234  A    between atoms: _584  and  _586
REMARK  235  A    between atoms: _586  and  _587
REMARK  236  A    between atoms: _589  and  _591
REMARK  237  A    between atoms: _591  and  _592
REMARK  238  A    between atoms: _591  and  _594
REMARK  239  A    between atoms: _594  and  _595
REMARK  240  A    between atoms: _598  and  _600
REMARK  241  A    between atoms: _600  and  _601
REMARK  242  A    between atoms: _603  and  _605
REMARK  243  A    between atoms: _605  and  _606
REMARK  244  A    between atoms: _605  and  _608
REMARK  245  A    between atoms: _608  and  _609
REMARK  246  A    between atoms: _614  and  _616
REMARK  247  A    between atoms: _616  and  _617
REMARK  248  A    between atoms: _616  and  _619
REMARK  249  A    between atoms: _619  and  _620
REMARK  250  A    between atoms: _620  and  _621
REMARK  251  A    between atoms: _628  and  _629
REMARK  252  A    between atoms: _629  and  _645
REMARK  253  A    between atoms: _630  and  _632
REMARK  254  A    between atoms: _632  and  _633
REMARK  255  A    between atoms: _633  and  _634
REMARK  256  A    between atoms: _638  and  _640
REMARK  257  A    between atoms: _640  and  _641
REMARK  258  A    between atoms: _640  and  _648
REMARK  259  A    between atoms: _641  and  _642
REMARK  260  A    between atoms: _642  and  _643
REMARK  261  A    between atoms: _643  and  _644
REMARK  262  A    between atoms: _644  and  _645
REMARK  263  A    between atoms: _650  and  _652
REMARK  264  A    between atoms: _652  and  _653
REMARK  265  A    between atoms: _652  and  _655
REMARK  266  A    between atoms: _655  and  _656
REMARK  267  A    between atoms: _659  and  _661
REMARK  268  A    between atoms: _661  and  _662
REMARK  269  A    between atoms: _664  and  _666
REMARK  270  A    between atoms: _666  and  _667
REMARK  271  A    between atoms: _670  and  _672
REMARK  272  A    between atoms: _672  and  _673
REMARK  273  A    between atoms: _672  and  _675
REMARK  274  A    between atoms: _675  and  _676
REMARK  275  A    between atoms: _679  and  _681
REMARK  276  A    between atoms: _681  and  _682
REMARK  277  A    between atoms: _681  and  _684
REMARK  278  A    between atoms: _684  and  _685
REMARK  279  A    between atoms: _690  and  _691
REMARK                            x       y       z     vdW  Elec       q    Type
REMARK                         _______ _______ _______ _____ _____    ______ ____
ROOT
ATOM      1  CA  GLY A   7      23.685  22.364  23.905  0.00  0.00    +0.176 C 
ENDROOT
BRANCH   1   2
ATOM      2  C   GLY A   7      23.275  21.935  22.497  0.00  0.00    +0.243 C 
ATOM      3  O   GLY A   7      22.077  21.686  22.208  0.00  0.00    -0.273 OA
ATOM      4  N   ASN A   8      24.259  21.851  21.594  0.00  0.00    -0.297 N 
ATOM      5  H   ASN A   8      25.247  21.972  21.895  0.00  0.00    +0.150 HD
BRANCH   4   6
ATOM      6  CA  ASN A   8      23.956  21.590  20.183  0.00  0.00    +0.158 C 
BRANCH   6   7
ATOM      7  C   ASN A   8      23.131  20.318  20.047  0.00  0.00    +0.241 C 
ATOM      8  N   MET A   9      23.604  19.296  20.741  0.00  0.00    -0.297 N 
ATOM      9  H   MET A   9      24.525  19.410  21.210  0.00  0.00    +0.150 HD
ATOM     10  O   ASN A   8      22.099  20.276  19.374  0.00  0.00    -0.273 OA
BRANCH   8  11
ATOM     11  CA  MET A   9      22.914  18.016  20.890  0.00  0.00    +0.149 C 
BRANCH  11  12
ATOM     12  C   MET A   9      21.526  18.170  21.568  0.00  0.00    +0.241 C 
ATOM     13  N   UNK A  10      21.396  19.069  22.529  0.00  0.00    -0.298 N 
ATOM     14  H   UNK A  10      22.190  19.678  22.812  0.00  0.00    +0.150 HD
ATOM     15  O   MET A   9      20.566  17.511  21.196  0.00  0.00    -0.273 OA
BRANCH  13  16
ATOM     16  C   UNK A  10      20.097  19.171  23.173  0.00  0.00    +0.137 C 
BRANCH  16  17
ATOM     17  C   UNK A  10      19.027  19.592  22.181  0.00  0.00    +0.227 C 
ATOM     18  O   UNK A  10      17.928  19.016  22.124  0.00  0.00    -0.286 OA
ENDBRANCH  16  17
BRANCH  16  19
ATOM     19  C   UNK A  10      20.154  20.096  24.381  0.00  0.00    +0.028 C 
BRANCH  19  20
ATOM     20  C   UNK A  10      21.041  19.539  25.482  0.00  0.00    -0.000 C 
BRANCH  20  21
ATOM     21  C   UNK A  10      21.327  20.639  26.485  0.00  0.00    -0.023 C 
BRANCH  21  22
ATOM     22  C   UNK A  10      22.612  20.422  27.229  0.00  0.00    -0.082 C 
BRANCH  22  23
ATOM     23  N   UNK A  10      22.787  21.655  28.069  0.00  0.00    +0.384 N 
ATOM     24  H   UNK A  10      22.176  22.414  27.707  0.00  0.00    -0.084 HD
ATOM     25  H   UNK A  10      22.530  21.446  29.055  0.00  0.00    -0.084 HD
BRANCH  23  26
ATOM     26  C   UNK A  10      24.050  22.036  28.011  0.00  0.00    -0.070 C 
BRANCH  26  27
ATOM     27  C   UNK A  10      24.258  23.276  28.832  0.00  0.00    +0.064 C 
ATOM     28  C   UNK A  10      25.413  24.041  28.619  0.00  0.00    +0.010 C 
ATOM     29  C   UNK A  10      25.615  25.201  29.340  0.00  0.00    +0.093 C 
ATOM     30  N   UNK A  10      24.687  25.569  30.282  0.00  0.00    -0.246 NA
ATOM     31  C   UNK A  10      23.569  24.838  30.538  0.00  0.00    +0.094 C 
ATOM     32  C   UNK A  10      22.651  25.381  31.570  0.00  0.00    +0.055 C 
ATOM     33  C   UNK A  10      23.312  23.669  29.811  0.00  0.00    +0.188 C 
ATOM     34  O   UNK A  10      22.278  22.988  30.011  0.00  0.00    -0.290 OA
BRANCH  28  35
ATOM     35  C   UNK A  10      26.424  23.695  27.561  0.00  0.00    +0.178 C 
BRANCH  35  36
ATOM     36  O   UNK A  10      26.058  24.385  26.355  0.00  0.00    -0.266 OA
BRANCH  36  37
ATOM     37  P   UNK A  10      27.081  24.705  25.158  0.00  0.00    +0.533 P 
ATOM     38  O   UNK A  10      27.698  23.434  24.738  0.00  0.00    -0.115 OA
ATOM     39  O   UNK A  10      28.017  25.691  25.760  0.00  0.00    -0.115 OA
ATOM     40  O   UNK A  10      26.134  25.319  24.213  0.00  0.00    -0.222 OA
ENDBRANCH  36  37
ENDBRANCH  35  36
ENDBRANCH  28  35
ENDBRANCH  26  27
ENDBRANCH  23  26
ENDBRANCH  22  23
ENDBRANCH  21  22
ENDBRANCH  20  21
ENDBRANCH  19  20
ENDBRANCH  16  19
ENDBRANCH  13  16
ENDBRANCH  11  12
BRANCH  11  41
ATOM     41  CB  MET A   9      23.803  17.047  21.665  0.00  0.00    +0.041 C 
BRANCH  41  42
ATOM     42  CG  MET A   9      25.189  16.937  21.088  0.00  0.00    +0.060 C 
BRANCH  42  43
ATOM     43  SD  MET A   9      26.272  15.914  22.103  0.00  0.00    -0.139 S 
ATOM     44  CE  MET A   9      27.925  16.251  21.450  0.00  0.00    +0.069 C 
ENDBRANCH  42  43
ENDBRANCH  41  42
ENDBRANCH  11  41
ENDBRANCH   8  11
ENDBRANCH   6   7
BRANCH   6  45
ATOM     45  CB  ASN A   8      25.225  21.585  19.311  0.00  0.00    +0.114 C 
BRANCH  45  46
ATOM     46  CG  ASN A   8      26.380  20.804  19.931  0.00  0.00    +0.222 C 
ATOM     47  ND2 ASN A   8      26.161  20.151  21.094  0.00  0.00    -0.329 N 
ATOM     48 HD21 ASN A   8      25.228  20.201  21.551  0.00  0.00    +0.145 HD
ATOM     49 HD22 ASN A   8      26.925  19.598  21.532  0.00  0.00    +0.145 HD
ATOM     50  OD1 ASN A   8      27.472  20.778  19.344  0.00  0.00    -0.275 OA
ENDBRANCH  45  46
ENDBRANCH   6  45
ENDBRANCH   4   6
ENDBRANCH   1   2
BRANCH   1  52
ATOM     51  C   THR A   6      25.143  20.440  24.029  0.00  0.00    +0.243 C 
ATOM     52  N   GLY A   7      24.978  21.743  24.195  0.00  0.00    -0.295 N 
ATOM     53  H   GLY A   7      25.770  22.327  24.532  0.00  0.00    +0.150 HD
ATOM     54  O   THR A   6      24.203  19.692  23.762  0.00  0.00    -0.273 OA
BRANCH  51  55
ATOM     55  CA  THR A   6      26.553  19.890  24.173  0.00  0.00    +0.176 C 
BRANCH  55  57
ATOM     56  C   GLY A   5      28.612  20.568  23.077  0.00  0.00    +0.243 C 
ATOM     57  N   THR A   6      27.581  20.869  23.882  0.00  0.00    -0.295 N 
ATOM     58  H   THR A   6      27.519  21.818  24.303  0.00  0.00    +0.150 HD
ATOM     59  O   GLY A   5      28.877  19.425  22.732  0.00  0.00    -0.273 OA
BRANCH  56  60
ATOM     60  CA  GLY A   5      29.510  21.710  22.623  0.00  0.00    +0.176 C 
BRANCH  60  62
ATOM     61  C   SER A   4      31.240  20.492  21.347  0.00  0.00    +0.243 C 
ATOM     62  N   GLY A   5      30.815  21.121  22.455  0.00  0.00    -0.295 N 
ATOM     63  H   GLY A   5      31.478  21.188  23.253  0.00  0.00    +0.150 HD
ATOM     64  O   SER A   4      30.603  20.422  20.294  0.00  0.00    -0.273 OA
BRANCH  61  65
ATOM     65  CA  SER A   4      32.597  19.796  21.458  0.00  0.00    +0.178 C 
BRANCH  65  67
ATOM     66  C   ALA A   3      34.852  20.608  21.376  0.00  0.00    +0.241 C 
ATOM     67  N   SER A   4      33.634  20.654  21.932  0.00  0.00    -0.295 N 
ATOM     68  H   SER A   4      33.444  21.317  22.711  0.00  0.00    +0.150 HD
ATOM     69  O   ALA A   3      35.187  19.794  20.486  0.00  0.00    -0.273 OA
BRANCH  66  70
ATOM     70  CA  ALA A   3      35.878  21.615  21.910  0.00  0.00    +0.149 C 
ATOM     71  CB  ALA A   3      36.402  21.188  23.290  0.00  0.00    +0.031 C 
BRANCH  70  73
ATOM     72  C   GLU A   2      34.800  23.456  20.769  0.00  0.00    +0.241 C 
ATOM     73  N   ALA A   3      35.353  22.989  21.892  0.00  0.00    -0.297 N 
ATOM     74  H   ALA A   3      35.411  23.588  22.740  0.00  0.00    +0.150 HD
ATOM     75  O   GLU A   2      34.678  22.759  19.778  0.00  0.00    -0.273 OA
BRANCH  72  76
ATOM     76  CA  GLU A   2      34.376  24.920  20.722  0.00  0.00    +0.149 C 
BRANCH  76  79
ATOM     77  C   THR A   1      36.519  26.100  20.409  0.00  0.00    +0.241 C 
ATOM     78  O   THR A   1      36.818  25.993  21.605  0.00  0.00    -0.274 OA
ATOM     79  N   GLU A   2      35.371  25.630  19.903  0.00  0.00    -0.297 N 
ATOM     80  H   GLU A   2      35.175  25.773  18.892  0.00  0.00    +0.150 HD
BRANCH  77  81
ATOM     81  CA  THR A   1      37.482  26.785  19.469  0.00  0.00    +0.172 C 
BRANCH  81  82
ATOM     82  N   THR A   1      37.547  26.304  18.101  0.00  0.00    -0.236 NA
ATOM     83  H   THR A   1      36.745  26.469  17.460  0.00  0.00    +0.142 HD
ENDBRANCH  81  82
BRANCH  81  84
ATOM     84  CB  THR A   1      37.272  28.309  19.487  0.00  0.00    +0.135 C 
ATOM     85  CG2 THR A   1      38.303  28.969  18.556  0.00  0.00    +0.034 C 
BRANCH  84  86
ATOM     86  OG1 THR A   1      35.943  28.637  19.055  0.00  0.00    -0.383 OA
ATOM     87  HG1 THR A   1      35.805  28.303  18.133  0.00  0.00    +0.210 HD
ENDBRANCH  84  86
ENDBRANCH  81  84
ENDBRANCH  77  81
ENDBRANCH  76  79
BRANCH  76  88
ATOM     88  CB  GLU A   2      32.970  25.069  20.126  0.00  0.00    +0.041 C 
BRANCH  88  89
ATOM     89  CG  GLU A   2      31.799  24.674  21.067  0.00  0.00    +0.116 C 
BRANCH  89  90
ATOM     90  CD  GLU A   2      31.716  25.482  22.396  0.00  0.00    +0.365 C 
ATOM     91  OE2 GLU A   2      32.397  25.148  23.395  0.00  0.00    -0.246 OA
ATOM     92  OE1 GLU A   2      30.950  26.453  22.482  0.00  0.00    -0.246 OA
ENDBRANCH  89  90
ENDBRANCH  88  89
ENDBRANCH  76  88
ENDBRANCH  72  76
ENDBRANCH  70  73
ENDBRANCH  66  70
ENDBRANCH  65  67
BRANCH  65  93
ATOM     93  CB  SER A   4      32.415  18.577  22.333  0.00  0.00    +0.166 C 
BRANCH  93  94
ATOM     94  OG  SER A   4      31.181  17.948  21.941  0.00  0.00    -0.380 OA
ATOM     95  H   SER A   4      30.433  18.583  22.070  0.00  0.00    +0.211 HD
ENDBRANCH  93  94
ENDBRANCH  65  93
ENDBRANCH  61  65
ENDBRANCH  60  62
ENDBRANCH  56  60
ENDBRANCH  55  57
BRANCH  55  96
ATOM     96  CB  THR A   6      26.734  19.237  25.539  0.00  0.00    +0.137 C 
ATOM     97  CG2 THR A   6      27.967  18.303  25.528  0.00  0.00    +0.034 C 
BRANCH  96  98
ATOM     98  OG1 THR A   6      26.854  20.264  26.521  0.00  0.00    -0.382 OA
ATOM     99  HG1 THR A   6      26.972  19.853  27.414  0.00  0.00    +0.210 HD
ENDBRANCH  96  98
ENDBRANCH  55  96
ENDBRANCH  51  55
ENDBRANCH   1  52
TORSDOF 44
REMARK  Name = ../refined-set-2016/4eky/4eky_pocket.pdb
REMARK  279 active torsions:
REMARK  status: ('A' for Active; 'I' for Inactive)
REMARK    1  A    between atoms: _1  and  _3
REMARK    2  A    between atoms: _3  and  _4
REMARK    3  A    between atoms: _3  and  _6
REMARK    4  A    between atoms: _6  and  _7
REMARK    5  A    between atoms: _12  and  _13
REMARK    6  A    between atoms: _15  and  _17
REMARK    7  A    between atoms: _17  and  _18
REMARK    8  A    between atoms: _17  and  _20
REMARK    9  A    between atoms: _20  and  _21
REMARK   10  A    between atoms: _21  and  _22
REMARK   11  A    between atoms: _25  and  _27
REMARK   12  A    between atoms: _27  and  _28
REMARK   13  A    between atoms: _27  and  _30
REMARK   14  A    between atoms: _30  and  _31
REMARK   15  A    between atoms: _36  and  _37
REMARK   16  A    between atoms: _39  and  _41
REMARK   17  A    between atoms: _41  and  _42
REMARK   18  A    between atoms: _41  and  _44
REMARK   19  A    between atoms: _44  and  _45
REMARK   20  A    between atoms: _50  and  _52
REMARK   21  A    between atoms: _52  and  _53
REMARK   22  A    between atoms: _55  and  _57
REMARK   23  A    between atoms: _57  and  _58
REMARK   24  A    between atoms: _60  and  _62
REMARK   25  A    between atoms: _62  and  _63
REMARK   26  A    between atoms: _62  and  _65
REMARK   27  A    between atoms: _65  and  _66
REMARK   28  A    between atoms: _69  and  _71
REMARK   29  A    between atoms: _71  and  _72
REMARK   30  A    between atoms: _74  and  _76
REMARK   31  A    between atoms: _76  and  _77
REMARK   32  A    between atoms: _76  and  _79
REMARK   33  A    between atoms: _79  and  _80
REMARK   34  A    between atoms: _80  and  _81
REMARK   35  A    between atoms: _81  and  _82
REMARK   36  A    between atoms: _91  and  _93
REMARK   37  A    between atoms: _93  and  _94
REMARK   38  A    between atoms: _93  and  _96
REMARK   39  A    between atoms: _96  and  _97
REMARK   40  A    between atoms: _100  and  _102
REMARK   41  A    between atoms: _102  and  _103
REMARK   42  A    between atoms: _106  and  _108
REMARK   43  A    between atoms: _108  and  _109
REMARK   44  A    between atoms: _108  and  _111
REMARK   45  A    between atoms: _111  and  _112
REMARK   46  A    between atoms: _118  and  _120
REMARK   47  A    between atoms: _120  and  _121
REMARK   48  A    between atoms: _120  and  _123
REMARK   49  A    between atoms: _123  and  _124
REMARK   50  A    between atoms: _129  and  _131
REMARK   51  A    between atoms: _131  and  _132
REMARK   52  A    between atoms: _131  and  _134
REMARK   53  A    between atoms: _134  and  _135
REMARK   54  A    between atoms: _138  and  _140
REMARK   55  A    between atoms: _140  and  _141
REMARK   56  A    between atoms: _140  and  _143
REMARK   57  A    between atoms: _143  and  _144
REMARK   58  A    between atoms: _149  and  _151
REMARK   59  A    between atoms: _151  and  _152
REMARK   60  A    between atoms: _151  and  _154
REMARK   61  A    between atoms: _154  and  _155
REMARK   62  A    between atoms: _161  and  _163
REMARK   63  A    between atoms: _163  and  _164
REMARK   64  A    between atoms: _163  and  _166
REMARK   65  A    between atoms: _166  and  _167
REMARK   66  A    between atoms: _173  and  _175
REMARK   67  A    between atoms: _175  and  _176
REMARK   68  A    between atoms: _175  and  _178
REMARK   69  A    between atoms: _178  and  _179
REMARK   70  A    between atoms: _179  and  _180
REMARK   71  A    between atoms: _180  and  _181
REMARK   72  A    between atoms: _190  and  _192
REMARK   73  A    between atoms: _192  and  _193
REMARK   74  A    between atoms: _192  and  _195
REMARK   75  A    between atoms: _195  and  _196
REMARK   76  A    between atoms: _196  and  _197
REMARK   77  A    between atoms: _200  and  _202
REMARK   78  A    between atoms: _202  and  _203
REMARK   79  A    between atoms: _202  and  _205
REMARK   80  A    between atoms: _205  and  _206
REMARK   81  A    between atoms: _211  and  _213
REMARK   82  A    between atoms: _213  and  _214
REMARK   83  A    between atoms: _213  and  _216
REMARK   84  A    between atoms: _216  and  _217
REMARK   85  A    between atoms: _220  and  _222
REMARK   86  A    between atoms: _222  and  _223
REMARK   87  A    between atoms: _222  and  _225
REMARK   88  A    between atoms: _225  and  _226
REMARK   89  A    between atoms: _229  and  _231
REMARK   90  A    between atoms: _231  and  _232
REMARK   91  A    between atoms: _231  and  _234
REMARK   92  A    between atoms: _234  and  _235
REMARK   93  A    between atoms: _241  and  _242
REMARK   94  A    between atoms: _247  and  _249
REMARK   95  A    between atoms: _249  and  _250
REMARK   96  A    between atoms: _249  and  _252
REMARK   97  A    between atoms: _252  and  _253
REMARK   98  A    between atoms: _258  and  _259
REMARK   99  A    between atoms: _261  and  _263
REMARK  100  A    between atoms: _263  and  _264
REMARK  101  A    between atoms: _263  and  _266
REMARK  102  A    between atoms: _266  and  _267
REMARK  103  A    between atoms: _270  and  _272
REMARK  104  A    between atoms: _272  and  _273
REMARK  105  A    between atoms: _272  and  _275
REMARK  106  A    between atoms: _275  and  _276
REMARK  107  A    between atoms: _281  and  _283
REMARK  108  A    between atoms: _283  and  _284
REMARK  109  A    between atoms: _283  and  _286
REMARK  110  A    between atoms: _286  and  _287
REMARK  111  A    between atoms: _292  and  _294
REMARK  112  A    between atoms: _294  and  _295
REMARK  113  A    between atoms: _294  and  _297
REMARK  114  A    between atoms: _297  and  _298
REMARK  115  A    between atoms: _301  and  _303
REMARK  116  A    between atoms: _303  and  _304
REMARK  117  A    between atoms: _303  and  _306
REMARK  118  A    between atoms: _309  and  _311
REMARK  119  A    between atoms: _311  and  _312
REMARK  120  A    between atoms: _311  and  _314
REMARK  121  A    between atoms: _314  and  _315
REMARK  122  A    between atoms: _319  and  _320
REMARK  123  A    between atoms: _325  and  _327
REMARK  124  A    between atoms: _327  and  _328
REMARK  125  A    between atoms: _327  and  _330
REMARK  126  A    between atoms: _330  and  _331
REMARK  127  A    between atoms: _331  and  _332
REMARK  128  A    between atoms: _335  and  _337
REMARK  129  A    between atoms: _337  and  _338
REMARK  130  A    between atoms: _341  and  _343
REMARK  131  A    between atoms: _343  and  _344
REMARK  132  A    between atoms: _343  and  _346
REMARK  133  A    between atoms: _346  and  _347
REMARK  134  A    between atoms: _350  and  _352
REMARK  135  A    between atoms: _352  and  _353
REMARK  136  A    between atoms: _352  and  _355
REMARK  137  A    between atoms: _355  and  _356
REMARK  138  A    between atoms: _356  and  _357
REMARK  139  A    between atoms: _360  and  _362
REMARK  140  A    between atoms: _362  and  _363
REMARK  141  A    between atoms: _362  and  _365
REMARK  142  A    between atoms: _365  and  _366
REMARK  143  A    between atoms: _366  and  _367
REMARK  144  A    between atoms: _369  and  _371
REMARK  145  A    between atoms: _371  and  _372
REMARK  146  A    between atoms: _375  and  _377
REMARK  147  A    between atoms: _377  and  _378
REMARK  148  A    between atoms: _377  and  _380
REMARK  149  A    between atoms: _380  and  _381
REMARK  150  A    between atoms: _386  and  _388
REMARK  151  A    between atoms: _388  and  _389
REMARK  152  A    between atoms: _391  and  _393
REMARK  153  A    between atoms: _393  and  _394
REMARK  154  A    between atoms: _393  and  _396
REMARK  155  A    between atoms: _399  and  _401
REMARK  156  A    between atoms: _401  and  _402
REMARK  157  A    between atoms: _405  and  _407
REMARK  158  A    between atoms: _407  and  _408
REMARK  159  A    between atoms: _407  and  _410
REMARK  160  A    between atoms: _410  and  _411
REMARK  161  A    between atoms: _416  and  _418
REMARK  162  A    between atoms: _418  and  _419
REMARK  163  A    between atoms: _418  and  _421
REMARK  164  A    between atoms: _421  and  _422
REMARK  165  A    between atoms: _428  and  _430
REMARK  166  A    between atoms: _430  and  _431
REMARK  167  A    between atoms: _430  and  _433
REMARK  168  A    between atoms: _433  and  _434
REMARK  169  A    between atoms: _434  and  _435
REMARK  170  A    between atoms: _435  and  _436
REMARK  171  A    between atoms: _436  and  _437
REMARK  172  A    between atoms: _441  and  _443
REMARK  173  A    between atoms: _443  and  _444
REMARK  174  A    between atoms: _443  and  _446
REMARK  175  A    between atoms: _446  and  _447
REMARK  176  A    between atoms: _450  and  _452
REMARK  177  A    between atoms: _452  and  _453
REMARK  178  A    between atoms: _452  and  _455
REMARK  179  A    between atoms: _455  and  _456
REMARK  180  A    between atoms: _461  and  _463
REMARK  181  A    between atoms: _463  and  _464
REMARK  182  A    between atoms: _466  and  _468
REMARK  183  A    between atoms: _468  and  _469
REMARK  184  A    between atoms: _468  and  _471
REMARK  185  A    between atoms: _471  and  _472
REMARK  186  A    between atoms: _475  and  _477
REMARK  187  A    between atoms: _477  and  _478
REMARK  188  A    between atoms: _477  and  _480
REMARK  189  A    between atoms: _480  and  _481
REMARK  190  A    between atoms: _481  and  _482
REMARK  191  A    between atoms: _482  and  _483
REMARK  192  A    between atoms: _483  and  _484
REMARK  193  A    between atoms: _488  and  _490
REMARK  194  A    between atoms: _490  and  _491
REMARK  195  A    between atoms: _490  and  _493
REMARK  196  A    between atoms: _493  and  _494
REMARK  197  A    between atoms: _494  and  _495
REMARK  198  A    between atoms: _495  and  _496
REMARK  199  A    between atoms: _505  and  _507
REMARK  200  A    between atoms: _507  and  _508
REMARK  201  A    between atoms: _507  and  _510
REMARK  202  A    between atoms: _510  and  _511
REMARK  203  A    between atoms: _516  and  _518
REMARK  204  A    between atoms: _518  and  _519
REMARK  205  A    between atoms: _518  and  _521
REMARK  206  A    between atoms: _521  and  _522
REMARK  207  A    between atoms: _527  and  _528
REMARK  208  A    between atoms: _530  and  _532
REMARK  209  A    between atoms: _532  and  _533
REMARK  210  A    between atoms: _532  and  _535
REMARK  211  A    between atoms: _535  and  _536
REMARK  212  A    between atoms: _536  and  _537
REMARK  213  A    between atoms: _537  and  _538
REMARK  214  A    between atoms: _538  and  _539
REMARK  215  A    between atoms: _543  and  _545
REMARK  216  A    between atoms: _545  and  _546
REMARK  217  A    between atoms: _545  and  _548
REMARK  218  A    between atoms: _548  and  _549
REMARK  219  A    between atoms: _551  and  _553
REMARK  220  A    between atoms: _553  and  _554
REMARK  221  A    between atoms: _553  and  _556
REMARK  222  A    between atoms: _556  and  _557
REMARK  223  A    between atoms: _560  and  _562
REMARK  224  A    between atoms: _562  and  _563
REMARK  225  A    between atoms: _562  and  _565
REMARK  226  A    between atoms: _565  and  _566
REMARK  227  A    between atoms: _566  and  _567
REMARK  228  A    between atoms: _570  and  _572
REMARK  229  A    between atoms: _572  and  _573
REMARK  230  A    between atoms: _576  and  _578
REMARK  231  A    between atoms: _578  and  _579
REMARK  232  A    between atoms: _578  and  _581
REMARK  233  A    between atoms: _581  and  _582
REMARK  234  A    between atoms: _584  and  _586
REMARK  235  A    between atoms: _586  and  _587
REMARK  236  A    between atoms: _589  and  _591
REMARK  237  A    between atoms: _591  and  _592
REMARK  238  A    between atoms: _591  and  _594
REMARK  239  A    between atoms: _594  and  _595
REMARK  240  A    between atoms: _598  and  _600
REMARK  241  A    between atoms: _600  and  _601
REMARK  242  A    between atoms: _603  and  _605
REMARK  243  A    between atoms: _605  and  _606
REMARK  244  A    between atoms: _605  and  _608
REMARK  245  A    between atoms: _608  and  _609
REMARK  246  A    between atoms: _614  and  _616
REMARK  247  A    between atoms: _616  and  _617
REMARK  248  A    between atoms: _616  and  _619
REMARK  249  A    between atoms: _619  and  _620
REMARK  250  A    between atoms: _620  and  _621
REMARK  251  A    between atoms: _628  and  _629
REMARK  252  A    between atoms: _629  and  _645
REMARK  253  A    between atoms: _630  and  _632
REMARK  254  A    between atoms: _632  and  _633
REMARK  255  A    between atoms: _633  and  _634
REMARK  256  A    between atoms: _638  and  _640
REMARK  257  A    between atoms: _640  and  _641
REMARK  258  A    between atoms: _640  and  _648
REMARK  259  A    between atoms: _641  and  _642
REMARK  260  A    between atoms: _642  and  _643
REMARK  261  A    between atoms: _643  and  _644
REMARK  262  A    between atoms: _644  and  _645
REMARK  263  A    between atoms: _650  and  _652
REMARK  264  A    between atoms: _652  and  _653
REMARK  265  A    between atoms: _652  and  _655
REMARK  266  A    between atoms: _655  and  _656
REMARK  267  A    between atoms: _659  and  _661
REMARK  268  A    between atoms: _661  and  _662
REMARK  269  A    between atoms: _664  and  _666
REMARK  270  A    between atoms: _666  and  _667
REMARK  271  A    between atoms: _670  and  _672
REMARK  272  A    between atoms: _672  and  _673
REMARK  273  A    between atoms: _672  and  _675
REMARK  274  A    between atoms: _675  and  _676
REMARK  275  A    between atoms: _679  and  _681
REMARK  276  A    between atoms: _681  and  _682
REMARK  277  A    between atoms: _681  and  _684
REMARK  278  A    between atoms: _684  and  _685
REMARK  279  A    between atoms: _690  and  _691
REMARK                            x       y       z     vdW  Elec       q    Type
REMARK                         _______ _______ _______ _____ _____    ______ ____
ROOT
ATOM      1  C   ASP A   1      32.804  22.072  15.800  0.00  0.00    +0.239 C 
ATOM      2  N   GLY A   2      33.707  21.477  16.562  0.00  0.00    -0.296 N 
ATOM      3  H   GLY A   2      34.724  21.615  16.393  0.00  0.00    +0.150 HD
ATOM      4  O   ASP A   1      31.594  21.797  15.857  0.00  0.00    -0.274 OA
ENDROOT
BRANCH   1   5
ATOM      5  CA  ASP A   1      33.305  23.159  14.883  0.00  0.00    +0.156 C 
BRANCH   5   6
ATOM      6  N   ASP A   1      32.576  23.091  13.651  0.00  0.00    -0.238 NA
ATOM      7  H   ASP A   1      31.541  23.004  13.699  0.00  0.00    +0.142 HD
ENDBRANCH   5   6
BRANCH   5   8
ATOM      8  CB  ASP A   1      33.082  24.503  15.569  0.00  0.00    +0.140 C 
BRANCH   8   9
ATOM      9  CG  ASP A   1      34.224  24.861  16.508  0.00  0.00    +0.367 C 
ATOM     10  OD2 ASP A   1      34.088  25.854  17.262  0.00  0.00    -0.246 OA
ATOM     11  OD1 ASP A   1      35.248  24.136  16.506  0.00  0.00    -0.246 OA
ENDBRANCH   8   9
ENDBRANCH   5   8
ENDBRANCH   1   5
BRANCH   2  12
ATOM     12  CA  GLY A   2      33.236  20.619  17.649  0.00  0.00    +0.176 C 
BRANCH  12  13
ATOM     13  C   GLY A   2      32.355  19.481  17.204  0.00  0.00    +0.243 C 
ATOM     14  N   ALA A   3      31.368  19.129  18.021  0.00  0.00    -0.298 N 
ATOM     15  H   ALA A   3      31.239  19.609  18.935  0.00  0.00    +0.150 HD
ATOM     16  O   GLY A   2      32.578  18.897  16.142  0.00  0.00    -0.273 OA
BRANCH  14  17
ATOM     17  CA  ALA A   3      30.462  18.049  17.608  0.00  0.00    +0.137 C 
ATOM     18  CB  ALA A   3      29.640  17.509  18.768  0.00  0.00    +0.030 C 
BRANCH  17  19
ATOM     19  C   ALA A   3      29.584  18.401  16.377  0.00  0.00    +0.227 C 
ATOM     20  O   ALA A   3      29.104  17.462  15.702  0.00  0.00    -0.286 OA
ENDBRANCH  17  19
ENDBRANCH  14  17
ENDBRANCH  12  13
ENDBRANCH   2  12
TORSDOF 8
REMARK  Name = ../refined-set-2016/4eky/4eky_pocket.pdb
REMARK  279 active torsions:
REMARK  status: ('A' for Active; 'I' for Inactive)
REMARK    1  A    between atoms: _1  and  _3
REMARK    2  A    between atoms: _3  and  _4
REMARK    3  A    between atoms: _3  and  _6
REMARK    4  A    between atoms: _6  and  _7
REMARK    5  A    between atoms: _12  and  _13
REMARK    6  A    between atoms: _15  and  _17
REMARK    7  A    between atoms: _17  and  _18
REMARK    8  A    between atoms: _17  and  _20
REMARK    9  A    between atoms: _20  and  _21
REMARK   10  A    between atoms: _21  and  _22
REMARK   11  A    between atoms: _25  and  _27
REMARK   12  A    between atoms: _27  and  _28
REMARK   13  A    between atoms: _27  and  _30
REMARK   14  A    between atoms: _30  and  _31
REMARK   15  A    between atoms: _36  and  _37
REMARK   16  A    between atoms: _39  and  _41
REMARK   17  A    between atoms: _41  and  _42
REMARK   18  A    between atoms: _41  and  _44
REMARK   19  A    between atoms: _44  and  _45
REMARK   20  A    between atoms: _50  and  _52
REMARK   21  A    between atoms: _52  and  _53
REMARK   22  A    between atoms: _55  and  _57
REMARK   23  A    between atoms: _57  and  _58
REMARK   24  A    between atoms: _60  and  _62
REMARK   25  A    between atoms: _62  and  _63
REMARK   26  A    between atoms: _62  and  _65
REMARK   27  A    between atoms: _65  and  _66
REMARK   28  A    between atoms: _69  and  _71
REMARK   29  A    between atoms: _71  and  _72
REMARK   30  A    between atoms: _74  and  _76
REMARK   31  A    between atoms: _76  and  _77
REMARK   32  A    between atoms: _76  and  _79
REMARK   33  A    between atoms: _79  and  _80
REMARK   34  A    between atoms: _80  and  _81
REMARK   35  A    between atoms: _81  and  _82
REMARK   36  A    between atoms: _91  and  _93
REMARK   37  A    between atoms: _93  and  _94
REMARK   38  A    between atoms: _93  and  _96
REMARK   39  A    between atoms: _96  and  _97
REMARK   40  A    between atoms: _100  and  _102
REMARK   41  A    between atoms: _102  and  _103
REMARK   42  A    between atoms: _106  and  _108
REMARK   43  A    between atoms: _108  and  _109
REMARK   44  A    between atoms: _108  and  _111
REMARK   45  A    between atoms: _111  and  _112
REMARK   46  A    between atoms: _118  and  _120
REMARK   47  A    between atoms: _120  and  _121
REMARK   48  A    between atoms: _120  and  _123
REMARK   49  A    between atoms: _123  and  _124
REMARK   50  A    between atoms: _129  and  _131
REMARK   51  A    between atoms: _131  and  _132
REMARK   52  A    between atoms: _131  and  _134
REMARK   53  A    between atoms: _134  and  _135
REMARK   54  A    between atoms: _138  and  _140
REMARK   55  A    between atoms: _140  and  _141
REMARK   56  A    between atoms: _140  and  _143
REMARK   57  A    between atoms: _143  and  _144
REMARK   58  A    between atoms: _149  and  _151
REMARK   59  A    between atoms: _151  and  _152
REMARK   60  A    between atoms: _151  and  _154
REMARK   61  A    between atoms: _154  and  _155
REMARK   62  A    between atoms: _161  and  _163
REMARK   63  A    between atoms: _163  and  _164
REMARK   64  A    between atoms: _163  and  _166
REMARK   65  A    between atoms: _166  and  _167
REMARK   66  A    between atoms: _173  and  _175
REMARK   67  A    between atoms: _175  and  _176
REMARK   68  A    between atoms: _175  and  _178
REMARK   69  A    between atoms: _178  and  _179
REMARK   70  A    between atoms: _179  and  _180
REMARK   71  A    between atoms: _180  and  _181
REMARK   72  A    between atoms: _190  and  _192
REMARK   73  A    between atoms: _192  and  _193
REMARK   74  A    between atoms: _192  and  _195
REMARK   75  A    between atoms: _195  and  _196
REMARK   76  A    between atoms: _196  and  _197
REMARK   77  A    between atoms: _200  and  _202
REMARK   78  A    between atoms: _202  and  _203
REMARK   79  A    between atoms: _202  and  _205
REMARK   80  A    between atoms: _205  and  _206
REMARK   81  A    between atoms: _211  and  _213
REMARK   82  A    between atoms: _213  and  _214
REMARK   83  A    between atoms: _213  and  _216
REMARK   84  A    between atoms: _216  and  _217
REMARK   85  A    between atoms: _220  and  _222
REMARK   86  A    between atoms: _222  and  _223
REMARK   87  A    between atoms: _222  and  _225
REMARK   88  A    between atoms: _225  and  _226
REMARK   89  A    between atoms: _229  and  _231
REMARK   90  A    between atoms: _231  and  _232
REMARK   91  A    between atoms: _231  and  _234
REMARK   92  A    between atoms: _234  and  _235
REMARK   93  A    between atoms: _241  and  _242
REMARK   94  A    between atoms: _247  and  _249
REMARK   95  A    between atoms: _249  and  _250
REMARK   96  A    between atoms: _249  and  _252
REMARK   97  A    between atoms: _252  and  _253
REMARK   98  A    between atoms: _258  and  _259
REMARK   99  A    between atoms: _261  and  _263
REMARK  100  A    between atoms: _263  and  _264
REMARK  101  A    between atoms: _263  and  _266
REMARK  102  A    between atoms: _266  and  _267
REMARK  103  A    between atoms: _270  and  _272
REMARK  104  A    between atoms: _272  and  _273
REMARK  105  A    between atoms: _272  and  _275
REMARK  106  A    between atoms: _275  and  _276
REMARK  107  A    between atoms: _281  and  _283
REMARK  108  A    between atoms: _283  and  _284
REMARK  109  A    between atoms: _283  and  _286
REMARK  110  A    between atoms: _286  and  _287
REMARK  111  A    between atoms: _292  and  _294
REMARK  112  A    between atoms: _294  and  _295
REMARK  113  A    between atoms: _294  and  _297
REMARK  114  A    between atoms: _297  and  _298
REMARK  115  A    between atoms: _301  and  _303
REMARK  116  A    between atoms: _303  and  _304
REMARK  117  A    between atoms: _303  and  _306
REMARK  118  A    between atoms: _309  and  _311
REMARK  119  A    between atoms: _311  and  _312
REMARK  120  A    between atoms: _311  and  _314
REMARK  121  A    between atoms: _314  and  _315
REMARK  122  A    between atoms: _319  and  _320
REMARK  123  A    between atoms: _325  and  _327
REMARK  124  A    between atoms: _327  and  _328
REMARK  125  A    between atoms: _327  and  _330
REMARK  126  A    between atoms: _330  and  _331
REMARK  127  A    between atoms: _331  and  _332
REMARK  128  A    between atoms: _335  and  _337
REMARK  129  A    between atoms: _337  and  _338
REMARK  130  A    between atoms: _341  and  _343
REMARK  131  A    between atoms: _343  and  _344
REMARK  132  A    between atoms: _343  and  _346
REMARK  133  A    between atoms: _346  and  _347
REMARK  134  A    between atoms: _350  and  _352
REMARK  135  A    between atoms: _352  and  _353
REMARK  136  A    between atoms: _352  and  _355
REMARK  137  A    between atoms: _355  and  _356
REMARK  138  A    between atoms: _356  and  _357
REMARK  139  A    between atoms: _360  and  _362
REMARK  140  A    between atoms: _362  and  _363
REMARK  141  A    between atoms: _362  and  _365
REMARK  142  A    between atoms: _365  and  _366
REMARK  143  A    between atoms: _366  and  _367
REMARK  144  A    between atoms: _369  and  _371
REMARK  145  A    between atoms: _371  and  _372
REMARK  146  A    between atoms: _375  and  _377
REMARK  147  A    between atoms: _377  and  _378
REMARK  148  A    between atoms: _377  and  _380
REMARK  149  A    between atoms: _380  and  _381
REMARK  150  A    between atoms: _386  and  _388
REMARK  151  A    between atoms: _388  and  _389
REMARK  152  A    between atoms: _391  and  _393
REMARK  153  A    between atoms: _393  and  _394
REMARK  154  A    between atoms: _393  and  _396
REMARK  155  A    between atoms: _399  and  _401
REMARK  156  A    between atoms: _401  and  _402
REMARK  157  A    between atoms: _405  and  _407
REMARK  158  A    between atoms: _407  and  _408
REMARK  159  A    between atoms: _407  and  _410
REMARK  160  A    between atoms: _410  and  _411
REMARK  161  A    between atoms: _416  and  _418
REMARK  162  A    between atoms: _418  and  _419
REMARK  163  A    between atoms: _418  and  _421
REMARK  164  A    between atoms: _421  and  _422
REMARK  165  A    between atoms: _428  and  _430
REMARK  166  A    between atoms: _430  and  _431
REMARK  167  A    between atoms: _430  and  _433
REMARK  168  A    between atoms: _433  and  _434
REMARK  169  A    between atoms: _434  and  _435
REMARK  170  A    between atoms: _435  and  _436
REMARK  171  A    between atoms: _436  and  _437
REMARK  172  A    between atoms: _441  and  _443
REMARK  173  A    between atoms: _443  and  _444
REMARK  174  A    between atoms: _443  and  _446
REMARK  175  A    between atoms: _446  and  _447
REMARK  176  A    between atoms: _450  and  _452
REMARK  177  A    between atoms: _452  and  _453
REMARK  178  A    between atoms: _452  and  _455
REMARK  179  A    between atoms: _455  and  _456
REMARK  180  A    between atoms: _461  and  _463
REMARK  181  A    between atoms: _463  and  _464
REMARK  182  A    between atoms: _466  and  _468
REMARK  183  A    between atoms: _468  and  _469
REMARK  184  A    between atoms: _468  and  _471
REMARK  185  A    between atoms: _471  and  _472
REMARK  186  A    between atoms: _475  and  _477
REMARK  187  A    between atoms: _477  and  _478
REMARK  188  A    between atoms: _477  and  _480
REMARK  189  A    between atoms: _480  and  _481
REMARK  190  A    between atoms: _481  and  _482
REMARK  191  A    between atoms: _482  and  _483
REMARK  192  A    between atoms: _483  and  _484
REMARK  193  A    between atoms: _488  and  _490
REMARK  194  A    between atoms: _490  and  _491
REMARK  195  A    between atoms: _490  and  _493
REMARK  196  A    between atoms: _493  and  _494
REMARK  197  A    between atoms: _494  and  _495
REMARK  198  A    between atoms: _495  and  _496
REMARK  199  A    between atoms: _505  and  _507
REMARK  200  A    between atoms: _507  and  _508
REMARK  201  A    between atoms: _507  and  _510
REMARK  202  A    between atoms: _510  and  _511
REMARK  203  A    between atoms: _516  and  _518
REMARK  204  A    between atoms: _518  and  _519
REMARK  205  A    between atoms: _518  and  _521
REMARK  206  A    between atoms: _521  and  _522
REMARK  207  A    between atoms: _527  and  _528
REMARK  208  A    between atoms: _530  and  _532
REMARK  209  A    between atoms: _532  and  _533
REMARK  210  A    between atoms: _532  and  _535
REMARK  211  A    between atoms: _535  and  _536
REMARK  212  A    between atoms: _536  and  _537
REMARK  213  A    between atoms: _537  and  _538
REMARK  214  A    between atoms: _538  and  _539
REMARK  215  A    between atoms: _543  and  _545
REMARK  216  A    between atoms: _545  and  _546
REMARK  217  A    between atoms: _545  and  _548
REMARK  218  A    between atoms: _548  and  _549
REMARK  219  A    between atoms: _551  and  _553
REMARK  220  A    between atoms: _553  and  _554
REMARK  221  A    between atoms: _553  and  _556
REMARK  222  A    between atoms: _556  and  _557
REMARK  223  A    between atoms: _560  and  _562
REMARK  224  A    between atoms: _562  and  _563
REMARK  225  A    between atoms: _562  and  _565
REMARK  226  A    between atoms: _565  and  _566
REMARK  227  A    between atoms: _566  and  _567
REMARK  228  A    between atoms: _570  and  _572
REMARK  229  A    between atoms: _572  and  _573
REMARK  230  A    between atoms: _576  and  _578
REMARK  231  A    between atoms: _578  and  _579
REMARK  232  A    between atoms: _578  and  _581
REMARK  233  A    between atoms: _581  and  _582
REMARK  234  A    between atoms: _584  and  _586
REMARK  235  A    between atoms: _586  and  _587
REMARK  236  A    between atoms: _589  and  _591
REMARK  237  A    between atoms: _591  and  _592
REMARK  238  A    between atoms: _591  and  _594
REMARK  239  A    between atoms: _594  and  _595
REMARK  240  A    between atoms: _598  and  _600
REMARK  241  A    between atoms: _600  and  _601
REMARK  242  A    between atoms: _603  and  _605
REMARK  243  A    between atoms: _605  and  _606
REMARK  244  A    between atoms: _605  and  _608
REMARK  245  A    between atoms: _608  and  _609
REMARK  246  A    between atoms: _614  and  _616
REMARK  247  A    between atoms: _616  and  _617
REMARK  248  A    between atoms: _616  and  _619
REMARK  249  A    between atoms: _619  and  _620
REMARK  250  A    between atoms: _620  and  _621
REMARK  251  A    between atoms: _628  and  _629
REMARK  252  A    between atoms: _629  and  _645
REMARK  253  A    between atoms: _630  and  _632
REMARK  254  A    between atoms: _632  and  _633
REMARK  255  A    between atoms: _633  and  _634
REMARK  256  A    between atoms: _638  and  _640
REMARK  257  A    between atoms: _640  and  _641
REMARK  258  A    between atoms: _640  and  _648
REMARK  259  A    between atoms: _641  and  _642
REMARK  260  A    between atoms: _642  and  _643
REMARK  261  A    between atoms: _643  and  _644
REMARK  262  A    between atoms: _644  and  _645
REMARK  263  A    between atoms: _650  and  _652
REMARK  264  A    between atoms: _652  and  _653
REMARK  265  A    between atoms: _652  and  _655
REMARK  266  A    between atoms: _655  and  _656
REMARK  267  A    between atoms: _659  and  _661
REMARK  268  A    between atoms: _661  and  _662
REMARK  269  A    between atoms: _664  and  _666
REMARK  270  A    between atoms: _666  and  _667
REMARK  271  A    between atoms: _670  and  _672
REMARK  272  A    between atoms: _672  and  _673
REMARK  273  A    between atoms: _672  and  _675
REMARK  274  A    between atoms: _675  and  _676
REMARK  275  A    between atoms: _679  and  _681
REMARK  276  A    between atoms: _681  and  _682
REMARK  277  A    between atoms: _681  and  _684
REMARK  278  A    between atoms: _684  and  _685
REMARK  279  A    between atoms: _690  and  _691
REMARK                            x       y       z     vdW  Elec       q    Type
REMARK                         _______ _______ _______ _____ _____    ______ ____
ROOT
ATOM      1  CA  THR A   1      29.780   7.993  25.278  0.00  0.00    +0.160 C 
ENDROOT
BRANCH   1   2
ATOM      2  N   THR A   1      28.547   7.440  24.788  0.00  0.00    -0.237 NA
ATOM      3  H   THR A   1      27.699   8.040  24.749  0.00  0.00    +0.142 HD
ENDBRANCH   1   2
BRANCH   1   4
ATOM      4  C   THR A   1      30.306   7.116  26.406  0.00  0.00    +0.227 C 
ATOM      5  O   THR A   1      31.497   6.734  26.445  0.00  0.00    -0.287 OA
ENDBRANCH   1   4
BRANCH   1   6
ATOM      6  CB  THR A   1      29.564   9.405  25.769  0.00  0.00    +0.134 C 
ATOM      7  CG2 THR A   1      30.856  10.070  26.082  0.00  0.00    +0.034 C 
BRANCH   6   8
ATOM      8  OG1 THR A   1      28.903  10.137  24.746  0.00  0.00    -0.383 OA
ATOM      9  HG1 THR A   1      29.464  10.143  23.931  0.00  0.00    +0.210 HD
ENDBRANCH   6   8
ENDBRANCH   1   6
TORSDOF 4
REMARK  Name = ../refined-set-2016/4eky/4eky_pocket.pdb
REMARK  279 active torsions:
REMARK  status: ('A' for Active; 'I' for Inactive)
REMARK    1  A    between atoms: _1  and  _3
REMARK    2  A    between atoms: _3  and  _4
REMARK    3  A    between atoms: _3  and  _6
REMARK    4  A    between atoms: _6  and  _7
REMARK    5  A    between atoms: _12  and  _13
REMARK    6  A    between atoms: _15  and  _17
REMARK    7  A    between atoms: _17  and  _18
REMARK    8  A    between atoms: _17  and  _20
REMARK    9  A    between atoms: _20  and  _21
REMARK   10  A    between atoms: _21  and  _22
REMARK   11  A    between atoms: _25  and  _27
REMARK   12  A    between atoms: _27  and  _28
REMARK   13  A    between atoms: _27  and  _30
REMARK   14  A    between atoms: _30  and  _31
REMARK   15  A    between atoms: _36  and  _37
REMARK   16  A    between atoms: _39  and  _41
REMARK   17  A    between atoms: _41  and  _42
REMARK   18  A    between atoms: _41  and  _44
REMARK   19  A    between atoms: _44  and  _45
REMARK   20  A    between atoms: _50  and  _52
REMARK   21  A    between atoms: _52  and  _53
REMARK   22  A    between atoms: _55  and  _57
REMARK   23  A    between atoms: _57  and  _58
REMARK   24  A    between atoms: _60  and  _62
REMARK   25  A    between atoms: _62  and  _63
REMARK   26  A    between atoms: _62  and  _65
REMARK   27  A    between atoms: _65  and  _66
REMARK   28  A    between atoms: _69  and  _71
REMARK   29  A    between atoms: _71  and  _72
REMARK   30  A    between atoms: _74  and  _76
REMARK   31  A    between atoms: _76  and  _77
REMARK   32  A    between atoms: _76  and  _79
REMARK   33  A    between atoms: _79  and  _80
REMARK   34  A    between atoms: _80  and  _81
REMARK   35  A    between atoms: _81  and  _82
REMARK   36  A    between atoms: _91  and  _93
REMARK   37  A    between atoms: _93  and  _94
REMARK   38  A    between atoms: _93  and  _96
REMARK   39  A    between atoms: _96  and  _97
REMARK   40  A    between atoms: _100  and  _102
REMARK   41  A    between atoms: _102  and  _103
REMARK   42  A    between atoms: _106  and  _108
REMARK   43  A    between atoms: _108  and  _109
REMARK   44  A    between atoms: _108  and  _111
REMARK   45  A    between atoms: _111  and  _112
REMARK   46  A    between atoms: _118  and  _120
REMARK   47  A    between atoms: _120  and  _121
REMARK   48  A    between atoms: _120  and  _123
REMARK   49  A    between atoms: _123  and  _124
REMARK   50  A    between atoms: _129  and  _131
REMARK   51  A    between atoms: _131  and  _132
REMARK   52  A    between atoms: _131  and  _134
REMARK   53  A    between atoms: _134  and  _135
REMARK   54  A    between atoms: _138  and  _140
REMARK   55  A    between atoms: _140  and  _141
REMARK   56  A    between atoms: _140  and  _143
REMARK   57  A    between atoms: _143  and  _144
REMARK   58  A    between atoms: _149  and  _151
REMARK   59  A    between atoms: _151  and  _152
REMARK   60  A    between atoms: _151  and  _154
REMARK   61  A    between atoms: _154  and  _155
REMARK   62  A    between atoms: _161  and  _163
REMARK   63  A    between atoms: _163  and  _164
REMARK   64  A    between atoms: _163  and  _166
REMARK   65  A    between atoms: _166  and  _167
REMARK   66  A    between atoms: _173  and  _175
REMARK   67  A    between atoms: _175  and  _176
REMARK   68  A    between atoms: _175  and  _178
REMARK   69  A    between atoms: _178  and  _179
REMARK   70  A    between atoms: _179  and  _180
REMARK   71  A    between atoms: _180  and  _181
REMARK   72  A    between atoms: _190  and  _192
REMARK   73  A    between atoms: _192  and  _193
REMARK   74  A    between atoms: _192  and  _195
REMARK   75  A    between atoms: _195  and  _196
REMARK   76  A    between atoms: _196  and  _197
REMARK   77  A    between atoms: _200  and  _202
REMARK   78  A    between atoms: _202  and  _203
REMARK   79  A    between atoms: _202  and  _205
REMARK   80  A    between atoms: _205  and  _206
REMARK   81  A    between atoms: _211  and  _213
REMARK   82  A    between atoms: _213  and  _214
REMARK   83  A    between atoms: _213  and  _216
REMARK   84  A    between atoms: _216  and  _217
REMARK   85  A    between atoms: _220  and  _222
REMARK   86  A    between atoms: _222  and  _223
REMARK   87  A    between atoms: _222  and  _225
REMARK   88  A    between atoms: _225  and  _226
REMARK   89  A    between atoms: _229  and  _231
REMARK   90  A    between atoms: _231  and  _232
REMARK   91  A    between atoms: _231  and  _234
REMARK   92  A    between atoms: _234  and  _235
REMARK   93  A    between atoms: _241  and  _242
REMARK   94  A    between atoms: _247  and  _249
REMARK   95  A    between atoms: _249  and  _250
REMARK   96  A    between atoms: _249  and  _252
REMARK   97  A    between atoms: _252  and  _253
REMARK   98  A    between atoms: _258  and  _259
REMARK   99  A    between atoms: _261  and  _263
REMARK  100  A    between atoms: _263  and  _264
REMARK  101  A    between atoms: _263  and  _266
REMARK  102  A    between atoms: _266  and  _267
REMARK  103  A    between atoms: _270  and  _272
REMARK  104  A    between atoms: _272  and  _273
REMARK  105  A    between atoms: _272  and  _275
REMARK  106  A    between atoms: _275  and  _276
REMARK  107  A    between atoms: _281  and  _283
REMARK  108  A    between atoms: _283  and  _284
REMARK  109  A    between atoms: _283  and  _286
REMARK  110  A    between atoms: _286  and  _287
REMARK  111  A    between atoms: _292  and  _294
REMARK  112  A    between atoms: _294  and  _295
REMARK  113  A    between atoms: _294  and  _297
REMARK  114  A    between atoms: _297  and  _298
REMARK  115  A    between atoms: _301  and  _303
REMARK  116  A    between atoms: _303  and  _304
REMARK  117  A    between atoms: _303  and  _306
REMARK  118  A    between atoms: _309  and  _311
REMARK  119  A    between atoms: _311  and  _312
REMARK  120  A    between atoms: _311  and  _314
REMARK  121  A    between atoms: _314  and  _315
REMARK  122  A    between atoms: _319  and  _320
REMARK  123  A    between atoms: _325  and  _327
REMARK  124  A    between atoms: _327  and  _328
REMARK  125  A    between atoms: _327  and  _330
REMARK  126  A    between atoms: _330  and  _331
REMARK  127  A    between atoms: _331  and  _332
REMARK  128  A    between atoms: _335  and  _337
REMARK  129  A    between atoms: _337  and  _338
REMARK  130  A    between atoms: _341  and  _343
REMARK  131  A    between atoms: _343  and  _344
REMARK  132  A    between atoms: _343  and  _346
REMARK  133  A    between atoms: _346  and  _347
REMARK  134  A    between atoms: _350  and  _352
REMARK  135  A    between atoms: _352  and  _353
REMARK  136  A    between atoms: _352  and  _355
REMARK  137  A    between atoms: _355  and  _356
REMARK  138  A    between atoms: _356  and  _357
REMARK  139  A    between atoms: _360  and  _362
REMARK  140  A    between atoms: _362  and  _363
REMARK  141  A    between atoms: _362  and  _365
REMARK  142  A    between atoms: _365  and  _366
REMARK  143  A    between atoms: _366  and  _367
REMARK  144  A    between atoms: _369  and  _371
REMARK  145  A    between atoms: _371  and  _372
REMARK  146  A    between atoms: _375  and  _377
REMARK  147  A    between atoms: _377  and  _378
REMARK  148  A    between atoms: _377  and  _380
REMARK  149  A    between atoms: _380  and  _381
REMARK  150  A    between atoms: _386  and  _388
REMARK  151  A    between atoms: _388  and  _389
REMARK  152  A    between atoms: _391  and  _393
REMARK  153  A    between atoms: _393  and  _394
REMARK  154  A    between atoms: _393  and  _396
REMARK  155  A    between atoms: _399  and  _401
REMARK  156  A    between atoms: _401  and  _402
REMARK  157  A    between atoms: _405  and  _407
REMARK  158  A    between atoms: _407  and  _408
REMARK  159  A    between atoms: _407  and  _410
REMARK  160  A    between atoms: _410  and  _411
REMARK  161  A    between atoms: _416  and  _418
REMARK  162  A    between atoms: _418  and  _419
REMARK  163  A    between atoms: _418  and  _421
REMARK  164  A    between atoms: _421  and  _422
REMARK  165  A    between atoms: _428  and  _430
REMARK  166  A    between atoms: _430  and  _431
REMARK  167  A    between atoms: _430  and  _433
REMARK  168  A    between atoms: _433  and  _434
REMARK  169  A    between atoms: _434  and  _435
REMARK  170  A    between atoms: _435  and  _436
REMARK  171  A    between atoms: _436  and  _437
REMARK  172  A    between atoms: _441  and  _443
REMARK  173  A    between atoms: _443  and  _444
REMARK  174  A    between atoms: _443  and  _446
REMARK  175  A    between atoms: _446  and  _447
REMARK  176  A    between atoms: _450  and  _452
REMARK  177  A    between atoms: _452  and  _453
REMARK  178  A    between atoms: _452  and  _455
REMARK  179  A    between atoms: _455  and  _456
REMARK  180  A    between atoms: _461  and  _463
REMARK  181  A    between atoms: _463  and  _464
REMARK  182  A    between atoms: _466  and  _468
REMARK  183  A    between atoms: _468  and  _469
REMARK  184  A    between atoms: _468  and  _471
REMARK  185  A    between atoms: _471  and  _472
REMARK  186  A    between atoms: _475  and  _477
REMARK  187  A    between atoms: _477  and  _478
REMARK  188  A    between atoms: _477  and  _480
REMARK  189  A    between atoms: _480  and  _481
REMARK  190  A    between atoms: _481  and  _482
REMARK  191  A    between atoms: _482  and  _483
REMARK  192  A    between atoms: _483  and  _484
REMARK  193  A    between atoms: _488  and  _490
REMARK  194  A    between atoms: _490  and  _491
REMARK  195  A    between atoms: _490  and  _493
REMARK  196  A    between atoms: _493  and  _494
REMARK  197  A    between atoms: _494  and  _495
REMARK  198  A    between atoms: _495  and  _496
REMARK  199  A    between atoms: _505  and  _507
REMARK  200  A    between atoms: _507  and  _508
REMARK  201  A    between atoms: _507  and  _510
REMARK  202  A    between atoms: _510  and  _511
REMARK  203  A    between atoms: _516  and  _518
REMARK  204  A    between atoms: _518  and  _519
REMARK  205  A    between atoms: _518  and  _521
REMARK  206  A    between atoms: _521  and  _522
REMARK  207  A    between atoms: _527  and  _528
REMARK  208  A    between atoms: _530  and  _532
REMARK  209  A    between atoms: _532  and  _533
REMARK  210  A    between atoms: _532  and  _535
REMARK  211  A    between atoms: _535  and  _536
REMARK  212  A    between atoms: _536  and  _537
REMARK  213  A    between atoms: _537  and  _538
REMARK  214  A    between atoms: _538  and  _539
REMARK  215  A    between atoms: _543  and  _545
REMARK  216  A    between atoms: _545  and  _546
REMARK  217  A    between atoms: _545  and  _548
REMARK  218  A    between atoms: _548  and  _549
REMARK  219  A    between atoms: _551  and  _553
REMARK  220  A    between atoms: _553  and  _554
REMARK  221  A    between atoms: _553  and  _556
REMARK  222  A    between atoms: _556  and  _557
REMARK  223  A    between atoms: _560  and  _562
REMARK  224  A    between atoms: _562  and  _563
REMARK  225  A    between atoms: _562  and  _565
REMARK  226  A    between atoms: _565  and  _566
REMARK  227  A    between atoms: _566  and  _567
REMARK  228  A    between atoms: _570  and  _572
REMARK  229  A    between atoms: _572  and  _573
REMARK  230  A    between atoms: _576  and  _578
REMARK  231  A    between atoms: _578  and  _579
REMARK  232  A    between atoms: _578  and  _581
REMARK  233  A    between atoms: _581  and  _582
REMARK  234  A    between atoms: _584  and  _586
REMARK  235  A    between atoms: _586  and  _587
REMARK  236  A    between atoms: _589  and  _591
REMARK  237  A    between atoms: _591  and  _592
REMARK  238  A    between atoms: _591  and  _594
REMARK  239  A    between atoms: _594  and  _595
REMARK  240  A    between atoms: _598  and  _600
REMARK  241  A    between atoms: _600  and  _601
REMARK  242  A    between atoms: _603  and  _605
REMARK  243  A    between atoms: _605  and  _606
REMARK  244  A    between atoms: _605  and  _608
REMARK  245  A    between atoms: _608  and  _609
REMARK  246  A    between atoms: _614  and  _616
REMARK  247  A    between atoms: _616  and  _617
REMARK  248  A    between atoms: _616  and  _619
REMARK  249  A    between atoms: _619  and  _620
REMARK  250  A    between atoms: _620  and  _621
REMARK  251  A    between atoms: _628  and  _629
REMARK  252  A    between atoms: _629  and  _645
REMARK  253  A    between atoms: _630  and  _632
REMARK  254  A    between atoms: _632  and  _633
REMARK  255  A    between atoms: _633  and  _634
REMARK  256  A    between atoms: _638  and  _640
REMARK  257  A    between atoms: _640  and  _641
REMARK  258  A    between atoms: _640  and  _648
REMARK  259  A    between atoms: _641  and  _642
REMARK  260  A    between atoms: _642  and  _643
REMARK  261  A    between atoms: _643  and  _644
REMARK  262  A    between atoms: _644  and  _645
REMARK  263  A    between atoms: _650  and  _652
REMARK  264  A    between atoms: _652  and  _653
REMARK  265  A    between atoms: _652  and  _655
REMARK  266  A    between atoms: _655  and  _656
REMARK  267  A    between atoms: _659  and  _661
REMARK  268  A    between atoms: _661  and  _662
REMARK  269  A    between atoms: _664  and  _666
REMARK  270  A    between atoms: _666  and  _667
REMARK  271  A    between atoms: _670  and  _672
REMARK  272  A    between atoms: _672  and  _673
REMARK  273  A    between atoms: _672  and  _675
REMARK  274  A    between atoms: _675  and  _676
REMARK  275  A    between atoms: _679  and  _681
REMARK  276  A    between atoms: _681  and  _682
REMARK  277  A    between atoms: _681  and  _684
REMARK  278  A    between atoms: _684  and  _685
REMARK  279  A    between atoms: _690  and  _691
REMARK                            x       y       z     vdW  Elec       q    Type
REMARK                         _______ _______ _______ _____ _____    ______ ____
ROOT
ATOM      1  CG  TYR A   1      34.566   7.515  28.880  0.00  0.00    -0.020 A 
ATOM      2  CD2 TYR A   1      35.714   8.140  29.400  0.00  0.00    -0.001 A 
ATOM      3  CE2 TYR A   1      35.950   9.481  29.158  0.00  0.00    +0.036 A 
ATOM      4  CZ  TYR A   1      35.021  10.213  28.403  0.00  0.00    +0.134 A 
ATOM      5  CE1 TYR A   1      33.896   9.619  27.900  0.00  0.00    +0.036 A 
ATOM      6  CD1 TYR A   1      33.662   8.303  28.145  0.00  0.00    -0.001 A 
ENDROOT
BRANCH   4   7
ATOM      7  OH  TYR A   1      35.217  11.560  28.140  0.00  0.00    -0.506 OA
ATOM      8  HH  TYR A   1      35.266  11.700  27.161  0.00  0.00    +0.292 HD
ENDBRANCH   4   7
BRANCH   1   9
ATOM      9  CB  TYR A   1      34.259   6.058  29.187  0.00  0.00    +0.051 C 
BRANCH   9  10
ATOM     10  CA  TYR A   1      34.718   5.000  28.180  0.00  0.00    +0.137 C 
BRANCH  10  11
ATOM     11  N   TYR A   1      33.760   4.821  27.088  0.00  0.00    -0.239 NA
ATOM     12  H   TYR A   1      32.853   5.330  27.100  0.00  0.00    +0.142 HD
ENDBRANCH  10  11
BRANCH  10  13
ATOM     13  C   TYR A   1      34.892   3.675  28.909  0.00  0.00    +0.224 C 
ATOM     14  O   TYR A   1      36.004   3.237  29.193  0.00  0.00    -0.287 OA
ENDBRANCH  10  13
ENDBRANCH   9  10
ENDBRANCH   1   9
TORSDOF 5
REMARK  Name = ../refined-set-2016/4eky/4eky_pocket.pdb
REMARK  279 active torsions:
REMARK  status: ('A' for Active; 'I' for Inactive)
REMARK    1  A    between atoms: _1  and  _3
REMARK    2  A    between atoms: _3  and  _4
REMARK    3  A    between atoms: _3  and  _6
REMARK    4  A    between atoms: _6  and  _7
REMARK    5  A    between atoms: _12  and  _13
REMARK    6  A    between atoms: _15  and  _17
REMARK    7  A    between atoms: _17  and  _18
REMARK    8  A    between atoms: _17  and  _20
REMARK    9  A    between atoms: _20  and  _21
REMARK   10  A    between atoms: _21  and  _22
REMARK   11  A    between atoms: _25  and  _27
REMARK   12  A    between atoms: _27  and  _28
REMARK   13  A    between atoms: _27  and  _30
REMARK   14  A    between atoms: _30  and  _31
REMARK   15  A    between atoms: _36  and  _37
REMARK   16  A    between atoms: _39  and  _41
REMARK   17  A    between atoms: _41  and  _42
REMARK   18  A    between atoms: _41  and  _44
REMARK   19  A    between atoms: _44  and  _45
REMARK   20  A    between atoms: _50  and  _52
REMARK   21  A    between atoms: _52  and  _53
REMARK   22  A    between atoms: _55  and  _57
REMARK   23  A    between atoms: _57  and  _58
REMARK   24  A    between atoms: _60  and  _62
REMARK   25  A    between atoms: _62  and  _63
REMARK   26  A    between atoms: _62  and  _65
REMARK   27  A    between atoms: _65  and  _66
REMARK   28  A    between atoms: _69  and  _71
REMARK   29  A    between atoms: _71  and  _72
REMARK   30  A    between atoms: _74  and  _76
REMARK   31  A    between atoms: _76  and  _77
REMARK   32  A    between atoms: _76  and  _79
REMARK   33  A    between atoms: _79  and  _80
REMARK   34  A    between atoms: _80  and  _81
REMARK   35  A    between atoms: _81  and  _82
REMARK   36  A    between atoms: _91  and  _93
REMARK   37  A    between atoms: _93  and  _94
REMARK   38  A    between atoms: _93  and  _96
REMARK   39  A    between atoms: _96  and  _97
REMARK   40  A    between atoms: _100  and  _102
REMARK   41  A    between atoms: _102  and  _103
REMARK   42  A    between atoms: _106  and  _108
REMARK   43  A    between atoms: _108  and  _109
REMARK   44  A    between atoms: _108  and  _111
REMARK   45  A    between atoms: _111  and  _112
REMARK   46  A    between atoms: _118  and  _120
REMARK   47  A    between atoms: _120  and  _121
REMARK   48  A    between atoms: _120  and  _123
REMARK   49  A    between atoms: _123  and  _124
REMARK   50  A    between atoms: _129  and  _131
REMARK   51  A    between atoms: _131  and  _132
REMARK   52  A    between atoms: _131  and  _134
REMARK   53  A    between atoms: _134  and  _135
REMARK   54  A    between atoms: _138  and  _140
REMARK   55  A    between atoms: _140  and  _141
REMARK   56  A    between atoms: _140  and  _143
REMARK   57  A    between atoms: _143  and  _144
REMARK   58  A    between atoms: _149  and  _151
REMARK   59  A    between atoms: _151  and  _152
REMARK   60  A    between atoms: _151  and  _154
REMARK   61  A    between atoms: _154  and  _155
REMARK   62  A    between atoms: _161  and  _163
REMARK   63  A    between atoms: _163  and  _164
REMARK   64  A    between atoms: _163  and  _166
REMARK   65  A    between atoms: _166  and  _167
REMARK   66  A    between atoms: _173  and  _175
REMARK   67  A    between atoms: _175  and  _176
REMARK   68  A    between atoms: _175  and  _178
REMARK   69  A    between atoms: _178  and  _179
REMARK   70  A    between atoms: _179  and  _180
REMARK   71  A    between atoms: _180  and  _181
REMARK   72  A    between atoms: _190  and  _192
REMARK   73  A    between atoms: _192  and  _193
REMARK   74  A    between atoms: _192  and  _195
REMARK   75  A    between atoms: _195  and  _196
REMARK   76  A    between atoms: _196  and  _197
REMARK   77  A    between atoms: _200  and  _202
REMARK   78  A    between atoms: _202  and  _203
REMARK   79  A    between atoms: _202  and  _205
REMARK   80  A    between atoms: _205  and  _206
REMARK   81  A    between atoms: _211  and  _213
REMARK   82  A    between atoms: _213  and  _214
REMARK   83  A    between atoms: _213  and  _216
REMARK   84  A    between atoms: _216  and  _217
REMARK   85  A    between atoms: _220  and  _222
REMARK   86  A    between atoms: _222  and  _223
REMARK   87  A    between atoms: _222  and  _225
REMARK   88  A    between atoms: _225  and  _226
REMARK   89  A    between atoms: _229  and  _231
REMARK   90  A    between atoms: _231  and  _232
REMARK   91  A    between atoms: _231  and  _234
REMARK   92  A    between atoms: _234  and  _235
REMARK   93  A    between atoms: _241  and  _242
REMARK   94  A    between atoms: _247  and  _249
REMARK   95  A    between atoms: _249  and  _250
REMARK   96  A    between atoms: _249  and  _252
REMARK   97  A    between atoms: _252  and  _253
REMARK   98  A    between atoms: _258  and  _259
REMARK   99  A    between atoms: _261  and  _263
REMARK  100  A    between atoms: _263  and  _264
REMARK  101  A    between atoms: _263  and  _266
REMARK  102  A    between atoms: _266  and  _267
REMARK  103  A    between atoms: _270  and  _272
REMARK  104  A    between atoms: _272  and  _273
REMARK  105  A    between atoms: _272  and  _275
REMARK  106  A    between atoms: _275  and  _276
REMARK  107  A    between atoms: _281  and  _283
REMARK  108  A    between atoms: _283  and  _284
REMARK  109  A    between atoms: _283  and  _286
REMARK  110  A    between atoms: _286  and  _287
REMARK  111  A    between atoms: _292  and  _294
REMARK  112  A    between atoms: _294  and  _295
REMARK  113  A    between atoms: _294  and  _297
REMARK  114  A    between atoms: _297  and  _298
REMARK  115  A    between atoms: _301  and  _303
REMARK  116  A    between atoms: _303  and  _304
REMARK  117  A    between atoms: _303  and  _306
REMARK  118  A    between atoms: _309  and  _311
REMARK  119  A    between atoms: _311  and  _312
REMARK  120  A    between atoms: _311  and  _314
REMARK  121  A    between atoms: _314  and  _315
REMARK  122  A    between atoms: _319  and  _320
REMARK  123  A    between atoms: _325  and  _327
REMARK  124  A    between atoms: _327  and  _328
REMARK  125  A    between atoms: _327  and  _330
REMARK  126  A    between atoms: _330  and  _331
REMARK  127  A    between atoms: _331  and  _332
REMARK  128  A    between atoms: _335  and  _337
REMARK  129  A    between atoms: _337  and  _338
REMARK  130  A    between atoms: _341  and  _343
REMARK  131  A    between atoms: _343  and  _344
REMARK  132  A    between atoms: _343  and  _346
REMARK  133  A    between atoms: _346  and  _347
REMARK  134  A    between atoms: _350  and  _352
REMARK  135  A    between atoms: _352  and  _353
REMARK  136  A    between atoms: _352  and  _355
REMARK  137  A    between atoms: _355  and  _356
REMARK  138  A    between atoms: _356  and  _357
REMARK  139  A    between atoms: _360  and  _362
REMARK  140  A    between atoms: _362  and  _363
REMARK  141  A    between atoms: _362  and  _365
REMARK  142  A    between atoms: _365  and  _366
REMARK  143  A    between atoms: _366  and  _367
REMARK  144  A    between atoms: _369  and  _371
REMARK  145  A    between atoms: _371  and  _372
REMARK  146  A    between atoms: _375  and  _377
REMARK  147  A    between atoms: _377  and  _378
REMARK  148  A    between atoms: _377  and  _380
REMARK  149  A    between atoms: _380  and  _381
REMARK  150  A    between atoms: _386  and  _388
REMARK  151  A    between atoms: _388  and  _389
REMARK  152  A    between atoms: _391  and  _393
REMARK  153  A    between atoms: _393  and  _394
REMARK  154  A    between atoms: _393  and  _396
REMARK  155  A    between atoms: _399  and  _401
REMARK  156  A    between atoms: _401  and  _402
REMARK  157  A    between atoms: _405  and  _407
REMARK  158  A    between atoms: _407  and  _408
REMARK  159  A    between atoms: _407  and  _410
REMARK  160  A    between atoms: _410  and  _411
REMARK  161  A    between atoms: _416  and  _418
REMARK  162  A    between atoms: _418  and  _419
REMARK  163  A    between atoms: _418  and  _421
REMARK  164  A    between atoms: _421  and  _422
REMARK  165  A    between atoms: _428  and  _430
REMARK  166  A    between atoms: _430  and  _431
REMARK  167  A    between atoms: _430  and  _433
REMARK  168  A    between atoms: _433  and  _434
REMARK  169  A    between atoms: _434  and  _435
REMARK  170  A    between atoms: _435  and  _436
REMARK  171  A    between atoms: _436  and  _437
REMARK  172  A    between atoms: _441  and  _443
REMARK  173  A    between atoms: _443  and  _444
REMARK  174  A    between atoms: _443  and  _446
REMARK  175  A    between atoms: _446  and  _447
REMARK  176  A    between atoms: _450  and  _452
REMARK  177  A    between atoms: _452  and  _453
REMARK  178  A    between atoms: _452  and  _455
REMARK  179  A    between atoms: _455  and  _456
REMARK  180  A    between atoms: _461  and  _463
REMARK  181  A    between atoms: _463  and  _464
REMARK  182  A    between atoms: _466  and  _468
REMARK  183  A    between atoms: _468  and  _469
REMARK  184  A    between atoms: _468  and  _471
REMARK  185  A    between atoms: _471  and  _472
REMARK  186  A    between atoms: _475  and  _477
REMARK  187  A    between atoms: _477  and  _478
REMARK  188  A    between atoms: _477  and  _480
REMARK  189  A    between atoms: _480  and  _481
REMARK  190  A    between atoms: _481  and  _482
REMARK  191  A    between atoms: _482  and  _483
REMARK  192  A    between atoms: _483  and  _484
REMARK  193  A    between atoms: _488  and  _490
REMARK  194  A    between atoms: _490  and  _491
REMARK  195  A    between atoms: _490  and  _493
REMARK  196  A    between atoms: _493  and  _494
REMARK  197  A    between atoms: _494  and  _495
REMARK  198  A    between atoms: _495  and  _496
REMARK  199  A    between atoms: _505  and  _507
REMARK  200  A    between atoms: _507  and  _508
REMARK  201  A    between atoms: _507  and  _510
REMARK  202  A    between atoms: _510  and  _511
REMARK  203  A    between atoms: _516  and  _518
REMARK  204  A    between atoms: _518  and  _519
REMARK  205  A    between atoms: _518  and  _521
REMARK  206  A    between atoms: _521  and  _522
REMARK  207  A    between atoms: _527  and  _528
REMARK  208  A    between atoms: _530  and  _532
REMARK  209  A    between atoms: _532  and  _533
REMARK  210  A    between atoms: _532  and  _535
REMARK  211  A    between atoms: _535  and  _536
REMARK  212  A    between atoms: _536  and  _537
REMARK  213  A    between atoms: _537  and  _538
REMARK  214  A    between atoms: _538  and  _539
REMARK  215  A    between atoms: _543  and  _545
REMARK  216  A    between atoms: _545  and  _546
REMARK  217  A    between atoms: _545  and  _548
REMARK  218  A    between atoms: _548  and  _549
REMARK  219  A    between atoms: _551  and  _553
REMARK  220  A    between atoms: _553  and  _554
REMARK  221  A    between atoms: _553  and  _556
REMARK  222  A    between atoms: _556  and  _557
REMARK  223  A    between atoms: _560  and  _562
REMARK  224  A    between atoms: _562  and  _563
REMARK  225  A    between atoms: _562  and  _565
REMARK  226  A    between atoms: _565  and  _566
REMARK  227  A    between atoms: _566  and  _567
REMARK  228  A    between atoms: _570  and  _572
REMARK  229  A    between atoms: _572  and  _573
REMARK  230  A    between atoms: _576  and  _578
REMARK  231  A    between atoms: _578  and  _579
REMARK  232  A    between atoms: _578  and  _581
REMARK  233  A    between atoms: _581  and  _582
REMARK  234  A    between atoms: _584  and  _586
REMARK  235  A    between atoms: _586  and  _587
REMARK  236  A    between atoms: _589  and  _591
REMARK  237  A    between atoms: _591  and  _592
REMARK  238  A    between atoms: _591  and  _594
REMARK  239  A    between atoms: _594  and  _595
REMARK  240  A    between atoms: _598  and  _600
REMARK  241  A    between atoms: _600  and  _601
REMARK  242  A    between atoms: _603  and  _605
REMARK  243  A    between atoms: _605  and  _606
REMARK  244  A    between atoms: _605  and  _608
REMARK  245  A    between atoms: _608  and  _609
REMARK  246  A    between atoms: _614  and  _616
REMARK  247  A    between atoms: _616  and  _617
REMARK  248  A    between atoms: _616  and  _619
REMARK  249  A    between atoms: _619  and  _620
REMARK  250  A    between atoms: _620  and  _621
REMARK  251  A    between atoms: _628  and  _629
REMARK  252  A    between atoms: _629  and  _645
REMARK  253  A    between atoms: _630  and  _632
REMARK  254  A    between atoms: _632  and  _633
REMARK  255  A    between atoms: _633  and  _634
REMARK  256  A    between atoms: _638  and  _640
REMARK  257  A    between atoms: _640  and  _641
REMARK  258  A    between atoms: _640  and  _648
REMARK  259  A    between atoms: _641  and  _642
REMARK  260  A    between atoms: _642  and  _643
REMARK  261  A    between atoms: _643  and  _644
REMARK  262  A    between atoms: _644  and  _645
REMARK  263  A    between atoms: _650  and  _652
REMARK  264  A    between atoms: _652  and  _653
REMARK  265  A    between atoms: _652  and  _655
REMARK  266  A    between atoms: _655  and  _656
REMARK  267  A    between atoms: _659  and  _661
REMARK  268  A    between atoms: _661  and  _662
REMARK  269  A    between atoms: _664  and  _666
REMARK  270  A    between atoms: _666  and  _667
REMARK  271  A    between atoms: _670  and  _672
REMARK  272  A    between atoms: _672  and  _673
REMARK  273  A    between atoms: _672  and  _675
REMARK  274  A    between atoms: _675  and  _676
REMARK  275  A    between atoms: _679  and  _681
REMARK  276  A    between atoms: _681  and  _682
REMARK  277  A    between atoms: _681  and  _684
REMARK  278  A    between atoms: _684  and  _685
REMARK  279  A    between atoms: _690  and  _691
REMARK                            x       y       z     vdW  Elec       q    Type
REMARK                         _______ _______ _______ _____ _____    ______ ____
ROOT
ATOM      1  O   HOH     1      33.641  12.599  26.456  0.00  0.00    +0.000 OA
ENDROOT
TORSDOF 0
REMARK  Name = ../refined-set-2016/4eky/4eky_pocket.pdb
REMARK  279 active torsions:
REMARK  status: ('A' for Active; 'I' for Inactive)
REMARK    1  A    between atoms: _1  and  _3
REMARK    2  A    between atoms: _3  and  _4
REMARK    3  A    between atoms: _3  and  _6
REMARK    4  A    between atoms: _6  and  _7
REMARK    5  A    between atoms: _12  and  _13
REMARK    6  A    between atoms: _15  and  _17
REMARK    7  A    between atoms: _17  and  _18
REMARK    8  A    between atoms: _17  and  _20
REMARK    9  A    between atoms: _20  and  _21
REMARK   10  A    between atoms: _21  and  _22
REMARK   11  A    between atoms: _25  and  _27
REMARK   12  A    between atoms: _27  and  _28
REMARK   13  A    between atoms: _27  and  _30
REMARK   14  A    between atoms: _30  and  _31
REMARK   15  A    between atoms: _36  and  _37
REMARK   16  A    between atoms: _39  and  _41
REMARK   17  A    between atoms: _41  and  _42
REMARK   18  A    between atoms: _41  and  _44
REMARK   19  A    between atoms: _44  and  _45
REMARK   20  A    between atoms: _50  and  _52
REMARK   21  A    between atoms: _52  and  _53
REMARK   22  A    between atoms: _55  and  _57
REMARK   23  A    between atoms: _57  and  _58
REMARK   24  A    between atoms: _60  and  _62
REMARK   25  A    between atoms: _62  and  _63
REMARK   26  A    between atoms: _62  and  _65
REMARK   27  A    between atoms: _65  and  _66
REMARK   28  A    between atoms: _69  and  _71
REMARK   29  A    between atoms: _71  and  _72
REMARK   30  A    between atoms: _74  and  _76
REMARK   31  A    between atoms: _76  and  _77
REMARK   32  A    between atoms: _76  and  _79
REMARK   33  A    between atoms: _79  and  _80
REMARK   34  A    between atoms: _80  and  _81
REMARK   35  A    between atoms: _81  and  _82
REMARK   36  A    between atoms: _91  and  _93
REMARK   37  A    between atoms: _93  and  _94
REMARK   38  A    between atoms: _93  and  _96
REMARK   39  A    between atoms: _96  and  _97
REMARK   40  A    between atoms: _100  and  _102
REMARK   41  A    between atoms: _102  and  _103
REMARK   42  A    between atoms: _106  and  _108
REMARK   43  A    between atoms: _108  and  _109
REMARK   44  A    between atoms: _108  and  _111
REMARK   45  A    between atoms: _111  and  _112
REMARK   46  A    between atoms: _118  and  _120
REMARK   47  A    between atoms: _120  and  _121
REMARK   48  A    between atoms: _120  and  _123
REMARK   49  A    between atoms: _123  and  _124
REMARK   50  A    between atoms: _129  and  _131
REMARK   51  A    between atoms: _131  and  _132
REMARK   52  A    between atoms: _131  and  _134
REMARK   53  A    between atoms: _134  and  _135
REMARK   54  A    between atoms: _138  and  _140
REMARK   55  A    between atoms: _140  and  _141
REMARK   56  A    between atoms: _140  and  _143
REMARK   57  A    between atoms: _143  and  _144
REMARK   58  A    between atoms: _149  and  _151
REMARK   59  A    between atoms: _151  and  _152
REMARK   60  A    between atoms: _151  and  _154
REMARK   61  A    between atoms: _154  and  _155
REMARK   62  A    between atoms: _161  and  _163
REMARK   63  A    between atoms: _163  and  _164
REMARK   64  A    between atoms: _163  and  _166
REMARK   65  A    between atoms: _166  and  _167
REMARK   66  A    between atoms: _173  and  _175
REMARK   67  A    between atoms: _175  and  _176
REMARK   68  A    between atoms: _175  and  _178
REMARK   69  A    between atoms: _178  and  _179
REMARK   70  A    between atoms: _179  and  _180
REMARK   71  A    between atoms: _180  and  _181
REMARK   72  A    between atoms: _190  and  _192
REMARK   73  A    between atoms: _192  and  _193
REMARK   74  A    between atoms: _192  and  _195
REMARK   75  A    between atoms: _195  and  _196
REMARK   76  A    between atoms: _196  and  _197
REMARK   77  A    between atoms: _200  and  _202
REMARK   78  A    between atoms: _202  and  _203
REMARK   79  A    between atoms: _202  and  _205
REMARK   80  A    between atoms: _205  and  _206
REMARK   81  A    between atoms: _211  and  _213
REMARK   82  A    between atoms: _213  and  _214
REMARK   83  A    between atoms: _213  and  _216
REMARK   84  A    between atoms: _216  and  _217
REMARK   85  A    between atoms: _220  and  _222
REMARK   86  A    between atoms: _222  and  _223
REMARK   87  A    between atoms: _222  and  _225
REMARK   88  A    between atoms: _225  and  _226
REMARK   89  A    between atoms: _229  and  _231
REMARK   90  A    between atoms: _231  and  _232
REMARK   91  A    between atoms: _231  and  _234
REMARK   92  A    between atoms: _234  and  _235
REMARK   93  A    between atoms: _241  and  _242
REMARK   94  A    between atoms: _247  and  _249
REMARK   95  A    between atoms: _249  and  _250
REMARK   96  A    between atoms: _249  and  _252
REMARK   97  A    between atoms: _252  and  _253
REMARK   98  A    between atoms: _258  and  _259
REMARK   99  A    between atoms: _261  and  _263
REMARK  100  A    between atoms: _263  and  _264
REMARK  101  A    between atoms: _263  and  _266
REMARK  102  A    between atoms: _266  and  _267
REMARK  103  A    between atoms: _270  and  _272
REMARK  104  A    between atoms: _272  and  _273
REMARK  105  A    between atoms: _272  and  _275
REMARK  106  A    between atoms: _275  and  _276
REMARK  107  A    between atoms: _281  and  _283
REMARK  108  A    between atoms: _283  and  _284
REMARK  109  A    between atoms: _283  and  _286
REMARK  110  A    between atoms: _286  and  _287
REMARK  111  A    between atoms: _292  and  _294
REMARK  112  A    between atoms: _294  and  _295
REMARK  113  A    between atoms: _294  and  _297
REMARK  114  A    between atoms: _297  and  _298
REMARK  115  A    between atoms: _301  and  _303
REMARK  116  A    between atoms: _303  and  _304
REMARK  117  A    between atoms: _303  and  _306
REMARK  118  A    between atoms: _309  and  _311
REMARK  119  A    between atoms: _311  and  _312
REMARK  120  A    between atoms: _311  and  _314
REMARK  121  A    between atoms: _314  and  _315
REMARK  122  A    between atoms: _319  and  _320
REMARK  123  A    between atoms: _325  and  _327
REMARK  124  A    between atoms: _327  and  _328
REMARK  125  A    between atoms: _327  and  _330
REMARK  126  A    between atoms: _330  and  _331
REMARK  127  A    between atoms: _331  and  _332
REMARK  128  A    between atoms: _335  and  _337
REMARK  129  A    between atoms: _337  and  _338
REMARK  130  A    between atoms: _341  and  _343
REMARK  131  A    between atoms: _343  and  _344
REMARK  132  A    between atoms: _343  and  _346
REMARK  133  A    between atoms: _346  and  _347
REMARK  134  A    between atoms: _350  and  _352
REMARK  135  A    between atoms: _352  and  _353
REMARK  136  A    between atoms: _352  and  _355
REMARK  137  A    between atoms: _355  and  _356
REMARK  138  A    between atoms: _356  and  _357
REMARK  139  A    between atoms: _360  and  _362
REMARK  140  A    between atoms: _362  and  _363
REMARK  141  A    between atoms: _362  and  _365
REMARK  142  A    between atoms: _365  and  _366
REMARK  143  A    between atoms: _366  and  _367
REMARK  144  A    between atoms: _369  and  _371
REMARK  145  A    between atoms: _371  and  _372
REMARK  146  A    between atoms: _375  and  _377
REMARK  147  A    between atoms: _377  and  _378
REMARK  148  A    between atoms: _377  and  _380
REMARK  149  A    between atoms: _380  and  _381
REMARK  150  A    between atoms: _386  and  _388
REMARK  151  A    between atoms: _388  and  _389
REMARK  152  A    between atoms: _391  and  _393
REMARK  153  A    between atoms: _393  and  _394
REMARK  154  A    between atoms: _393  and  _396
REMARK  155  A    between atoms: _399  and  _401
REMARK  156  A    between atoms: _401  and  _402
REMARK  157  A    between atoms: _405  and  _407
REMARK  158  A    between atoms: _407  and  _408
REMARK  159  A    between atoms: _407  and  _410
REMARK  160  A    between atoms: _410  and  _411
REMARK  161  A    between atoms: _416  and  _418
REMARK  162  A    between atoms: _418  and  _419
REMARK  163  A    between atoms: _418  and  _421
REMARK  164  A    between atoms: _421  and  _422
REMARK  165  A    between atoms: _428  and  _430
REMARK  166  A    between atoms: _430  and  _431
REMARK  167  A    between atoms: _430  and  _433
REMARK  168  A    between atoms: _433  and  _434
REMARK  169  A    between atoms: _434  and  _435
REMARK  170  A    between atoms: _435  and  _436
REMARK  171  A    between atoms: _436  and  _437
REMARK  172  A    between atoms: _441  and  _443
REMARK  173  A    between atoms: _443  and  _444
REMARK  174  A    between atoms: _443  and  _446
REMARK  175  A    between atoms: _446  and  _447
REMARK  176  A    between atoms: _450  and  _452
REMARK  177  A    between atoms: _452  and  _453
REMARK  178  A    between atoms: _452  and  _455
REMARK  179  A    between atoms: _455  and  _456
REMARK  180  A    between atoms: _461  and  _463
REMARK  181  A    between atoms: _463  and  _464
REMARK  182  A    between atoms: _466  and  _468
REMARK  183  A    between atoms: _468  and  _469
REMARK  184  A    between atoms: _468  and  _471
REMARK  185  A    between atoms: _471  and  _472
REMARK  186  A    between atoms: _475  and  _477
REMARK  187  A    between atoms: _477  and  _478
REMARK  188  A    between atoms: _477  and  _480
REMARK  189  A    between atoms: _480  and  _481
REMARK  190  A    between atoms: _481  and  _482
REMARK  191  A    between atoms: _482  and  _483
REMARK  192  A    between atoms: _483  and  _484
REMARK  193  A    between atoms: _488  and  _490
REMARK  194  A    between atoms: _490  and  _491
REMARK  195  A    between atoms: _490  and  _493
REMARK  196  A    between atoms: _493  and  _494
REMARK  197  A    between atoms: _494  and  _495
REMARK  198  A    between atoms: _495  and  _496
REMARK  199  A    between atoms: _505  and  _507
REMARK  200  A    between atoms: _507  and  _508
REMARK  201  A    between atoms: _507  and  _510
REMARK  202  A    between atoms: _510  and  _511
REMARK  203  A    between atoms: _516  and  _518
REMARK  204  A    between atoms: _518  and  _519
REMARK  205  A    between atoms: _518  and  _521
REMARK  206  A    between atoms: _521  and  _522
REMARK  207  A    between atoms: _527  and  _528
REMARK  208  A    between atoms: _530  and  _532
REMARK  209  A    between atoms: _532  and  _533
REMARK  210  A    between atoms: _532  and  _535
REMARK  211  A    between atoms: _535  and  _536
REMARK  212  A    between atoms: _536  and  _537
REMARK  213  A    between atoms: _537  and  _538
REMARK  214  A    between atoms: _538  and  _539
REMARK  215  A    between atoms: _543  and  _545
REMARK  216  A    between atoms: _545  and  _546
REMARK  217  A    between atoms: _545  and  _548
REMARK  218  A    between atoms: _548  and  _549
REMARK  219  A    between atoms: _551  and  _553
REMARK  220  A    between atoms: _553  and  _554
REMARK  221  A    between atoms: _553  and  _556
REMARK  222  A    between atoms: _556  and  _557
REMARK  223  A    between atoms: _560  and  _562
REMARK  224  A    between atoms: _562  and  _563
REMARK  225  A    between atoms: _562  and  _565
REMARK  226  A    between atoms: _565  and  _566
REMARK  227  A    between atoms: _566  and  _567
REMARK  228  A    between atoms: _570  and  _572
REMARK  229  A    between atoms: _572  and  _573
REMARK  230  A    between atoms: _576  and  _578
REMARK  231  A    between atoms: _578  and  _579
REMARK  232  A    between atoms: _578  and  _581
REMARK  233  A    between atoms: _581  and  _582
REMARK  234  A    between atoms: _584  and  _586
REMARK  235  A    between atoms: _586  and  _587
REMARK  236  A    between atoms: _589  and  _591
REMARK  237  A    between atoms: _591  and  _592
REMARK  238  A    between atoms: _591  and  _594
REMARK  239  A    between atoms: _594  and  _595
REMARK  240  A    between atoms: _598  and  _600
REMARK  241  A    between atoms: _600  and  _601
REMARK  242  A    between atoms: _603  and  _605
REMARK  243  A    between atoms: _605  and  _606
REMARK  244  A    between atoms: _605  and  _608
REMARK  245  A    between atoms: _608  and  _609
REMARK  246  A    between atoms: _614  and  _616
REMARK  247  A    between atoms: _616  and  _617
REMARK  248  A    between atoms: _616  and  _619
REMARK  249  A    between atoms: _619  and  _620
REMARK  250  A    between atoms: _620  and  _621
REMARK  251  A    between atoms: _628  and  _629
REMARK  252  A    between atoms: _629  and  _645
REMARK  253  A    between atoms: _630  and  _632
REMARK  254  A    between atoms: _632  and  _633
REMARK  255  A    between atoms: _633  and  _634
REMARK  256  A    between atoms: _638  and  _640
REMARK  257  A    between atoms: _640  and  _641
REMARK  258  A    between atoms: _640  and  _648
REMARK  259  A    between atoms: _641  and  _642
REMARK  260  A    between atoms: _642  and  _643
REMARK  261  A    between atoms: _643  and  _644
REMARK  262  A    between atoms: _644  and  _645
REMARK  263  A    between atoms: _650  and  _652
REMARK  264  A    between atoms: _652  and  _653
REMARK  265  A    between atoms: _652  and  _655
REMARK  266  A    between atoms: _655  and  _656
REMARK  267  A    between atoms: _659  and  _661
REMARK  268  A    between atoms: _661  and  _662
REMARK  269  A    between atoms: _664  and  _666
REMARK  270  A    between atoms: _666  and  _667
REMARK  271  A    between atoms: _670  and  _672
REMARK  272  A    between atoms: _672  and  _673
REMARK  273  A    between atoms: _672  and  _675
REMARK  274  A    between atoms: _675  and  _676
REMARK  275  A    between atoms: _679  and  _681
REMARK  276  A    between atoms: _681  and  _682
REMARK  277  A    between atoms: _681  and  _684
REMARK  278  A    between atoms: _684  and  _685
REMARK  279  A    between atoms: _690  and  _691
REMARK                            x       y       z     vdW  Elec       q    Type
REMARK                         _______ _______ _______ _____ _____    ______ ____
ROOT
ATOM      1  O   HOH     1      29.122  27.383  20.685  0.00  0.00    +0.000 OA
ENDROOT
TORSDOF 0
REMARK  Name = ../refined-set-2016/4eky/4eky_pocket.pdb
REMARK  279 active torsions:
REMARK  status: ('A' for Active; 'I' for Inactive)
REMARK    1  A    between atoms: _1  and  _3
REMARK    2  A    between atoms: _3  and  _4
REMARK    3  A    between atoms: _3  and  _6
REMARK    4  A    between atoms: _6  and  _7
REMARK    5  A    between atoms: _12  and  _13
REMARK    6  A    between atoms: _15  and  _17
REMARK    7  A    between atoms: _17  and  _18
REMARK    8  A    between atoms: _17  and  _20
REMARK    9  A    between atoms: _20  and  _21
REMARK   10  A    between atoms: _21  and  _22
REMARK   11  A    between atoms: _25  and  _27
REMARK   12  A    between atoms: _27  and  _28
REMARK   13  A    between atoms: _27  and  _30
REMARK   14  A    between atoms: _30  and  _31
REMARK   15  A    between atoms: _36  and  _37
REMARK   16  A    between atoms: _39  and  _41
REMARK   17  A    between atoms: _41  and  _42
REMARK   18  A    between atoms: _41  and  _44
REMARK   19  A    between atoms: _44  and  _45
REMARK   20  A    between atoms: _50  and  _52
REMARK   21  A    between atoms: _52  and  _53
REMARK   22  A    between atoms: _55  and  _57
REMARK   23  A    between atoms: _57  and  _58
REMARK   24  A    between atoms: _60  and  _62
REMARK   25  A    between atoms: _62  and  _63
REMARK   26  A    between atoms: _62  and  _65
REMARK   27  A    between atoms: _65  and  _66
REMARK   28  A    between atoms: _69  and  _71
REMARK   29  A    between atoms: _71  and  _72
REMARK   30  A    between atoms: _74  and  _76
REMARK   31  A    between atoms: _76  and  _77
REMARK   32  A    between atoms: _76  and  _79
REMARK   33  A    between atoms: _79  and  _80
REMARK   34  A    between atoms: _80  and  _81
REMARK   35  A    between atoms: _81  and  _82
REMARK   36  A    between atoms: _91  and  _93
REMARK   37  A    between atoms: _93  and  _94
REMARK   38  A    between atoms: _93  and  _96
REMARK   39  A    between atoms: _96  and  _97
REMARK   40  A    between atoms: _100  and  _102
REMARK   41  A    between atoms: _102  and  _103
REMARK   42  A    between atoms: _106  and  _108
REMARK   43  A    between atoms: _108  and  _109
REMARK   44  A    between atoms: _108  and  _111
REMARK   45  A    between atoms: _111  and  _112
REMARK   46  A    between atoms: _118  and  _120
REMARK   47  A    between atoms: _120  and  _121
REMARK   48  A    between atoms: _120  and  _123
REMARK   49  A    between atoms: _123  and  _124
REMARK   50  A    between atoms: _129  and  _131
REMARK   51  A    between atoms: _131  and  _132
REMARK   52  A    between atoms: _131  and  _134
REMARK   53  A    between atoms: _134  and  _135
REMARK   54  A    between atoms: _138  and  _140
REMARK   55  A    between atoms: _140  and  _141
REMARK   56  A    between atoms: _140  and  _143
REMARK   57  A    between atoms: _143  and  _144
REMARK   58  A    between atoms: _149  and  _151
REMARK   59  A    between atoms: _151  and  _152
REMARK   60  A    between atoms: _151  and  _154
REMARK   61  A    between atoms: _154  and  _155
REMARK   62  A    between atoms: _161  and  _163
REMARK   63  A    between atoms: _163  and  _164
REMARK   64  A    between atoms: _163  and  _166
REMARK   65  A    between atoms: _166  and  _167
REMARK   66  A    between atoms: _173  and  _175
REMARK   67  A    between atoms: _175  and  _176
REMARK   68  A    between atoms: _175  and  _178
REMARK   69  A    between atoms: _178  and  _179
REMARK   70  A    between atoms: _179  and  _180
REMARK   71  A    between atoms: _180  and  _181
REMARK   72  A    between atoms: _190  and  _192
REMARK   73  A    between atoms: _192  and  _193
REMARK   74  A    between atoms: _192  and  _195
REMARK   75  A    between atoms: _195  and  _196
REMARK   76  A    between atoms: _196  and  _197
REMARK   77  A    between atoms: _200  and  _202
REMARK   78  A    between atoms: _202  and  _203
REMARK   79  A    between atoms: _202  and  _205
REMARK   80  A    between atoms: _205  and  _206
REMARK   81  A    between atoms: _211  and  _213
REMARK   82  A    between atoms: _213  and  _214
REMARK   83  A    between atoms: _213  and  _216
REMARK   84  A    between atoms: _216  and  _217
REMARK   85  A    between atoms: _220  and  _222
REMARK   86  A    between atoms: _222  and  _223
REMARK   87  A    between atoms: _222  and  _225
REMARK   88  A    between atoms: _225  and  _226
REMARK   89  A    between atoms: _229  and  _231
REMARK   90  A    between atoms: _231  and  _232
REMARK   91  A    between atoms: _231  and  _234
REMARK   92  A    between atoms: _234  and  _235
REMARK   93  A    between atoms: _241  and  _242
REMARK   94  A    between atoms: _247  and  _249
REMARK   95  A    between atoms: _249  and  _250
REMARK   96  A    between atoms: _249  and  _252
REMARK   97  A    between atoms: _252  and  _253
REMARK   98  A    between atoms: _258  and  _259
REMARK   99  A    between atoms: _261  and  _263
REMARK  100  A    between atoms: _263  and  _264
REMARK  101  A    between atoms: _263  and  _266
REMARK  102  A    between atoms: _266  and  _267
REMARK  103  A    between atoms: _270  and  _272
REMARK  104  A    between atoms: _272  and  _273
REMARK  105  A    between atoms: _272  and  _275
REMARK  106  A    between atoms: _275  and  _276
REMARK  107  A    between atoms: _281  and  _283
REMARK  108  A    between atoms: _283  and  _284
REMARK  109  A    between atoms: _283  and  _286
REMARK  110  A    between atoms: _286  and  _287
REMARK  111  A    between atoms: _292  and  _294
REMARK  112  A    between atoms: _294  and  _295
REMARK  113  A    between atoms: _294  and  _297
REMARK  114  A    between atoms: _297  and  _298
REMARK  115  A    between atoms: _301  and  _303
REMARK  116  A    between atoms: _303  and  _304
REMARK  117  A    between atoms: _303  and  _306
REMARK  118  A    between atoms: _309  and  _311
REMARK  119  A    between atoms: _311  and  _312
REMARK  120  A    between atoms: _311  and  _314
REMARK  121  A    between atoms: _314  and  _315
REMARK  122  A    between atoms: _319  and  _320
REMARK  123  A    between atoms: _325  and  _327
REMARK  124  A    between atoms: _327  and  _328
REMARK  125  A    between atoms: _327  and  _330
REMARK  126  A    between atoms: _330  and  _331
REMARK  127  A    between atoms: _331  and  _332
REMARK  128  A    between atoms: _335  and  _337
REMARK  129  A    between atoms: _337  and  _338
REMARK  130  A    between atoms: _341  and  _343
REMARK  131  A    between atoms: _343  and  _344
REMARK  132  A    between atoms: _343  and  _346
REMARK  133  A    between atoms: _346  and  _347
REMARK  134  A    between atoms: _350  and  _352
REMARK  135  A    between atoms: _352  and  _353
REMARK  136  A    between atoms: _352  and  _355
REMARK  137  A    between atoms: _355  and  _356
REMARK  138  A    between atoms: _356  and  _357
REMARK  139  A    between atoms: _360  and  _362
REMARK  140  A    between atoms: _362  and  _363
REMARK  141  A    between atoms: _362  and  _365
REMARK  142  A    between atoms: _365  and  _366
REMARK  143  A    between atoms: _366  and  _367
REMARK  144  A    between atoms: _369  and  _371
REMARK  145  A    between atoms: _371  and  _372
REMARK  146  A    between atoms: _375  and  _377
REMARK  147  A    between atoms: _377  and  _378
REMARK  148  A    between atoms: _377  and  _380
REMARK  149  A    between atoms: _380  and  _381
REMARK  150  A    between atoms: _386  and  _388
REMARK  151  A    between atoms: _388  and  _389
REMARK  152  A    between atoms: _391  and  _393
REMARK  153  A    between atoms: _393  and  _394
REMARK  154  A    between atoms: _393  and  _396
REMARK  155  A    between atoms: _399  and  _401
REMARK  156  A    between atoms: _401  and  _402
REMARK  157  A    between atoms: _405  and  _407
REMARK  158  A    between atoms: _407  and  _408
REMARK  159  A    between atoms: _407  and  _410
REMARK  160  A    between atoms: _410  and  _411
REMARK  161  A    between atoms: _416  and  _418
REMARK  162  A    between atoms: _418  and  _419
REMARK  163  A    between atoms: _418  and  _421
REMARK  164  A    between atoms: _421  and  _422
REMARK  165  A    between atoms: _428  and  _430
REMARK  166  A    between atoms: _430  and  _431
REMARK  167  A    between atoms: _430  and  _433
REMARK  168  A    between atoms: _433  and  _434
REMARK  169  A    between atoms: _434  and  _435
REMARK  170  A    between atoms: _435  and  _436
REMARK  171  A    between atoms: _436  and  _437
REMARK  172  A    between atoms: _441  and  _443
REMARK  173  A    between atoms: _443  and  _444
REMARK  174  A    between atoms: _443  and  _446
REMARK  175  A    between atoms: _446  and  _447
REMARK  176  A    between atoms: _450  and  _452
REMARK  177  A    between atoms: _452  and  _453
REMARK  178  A    between atoms: _452  and  _455
REMARK  179  A    between atoms: _455  and  _456
REMARK  180  A    between atoms: _461  and  _463
REMARK  181  A    between atoms: _463  and  _464
REMARK  182  A    between atoms: _466  and  _468
REMARK  183  A    between atoms: _468  and  _469
REMARK  184  A    between atoms: _468  and  _471
REMARK  185  A    between atoms: _471  and  _472
REMARK  186  A    between atoms: _475  and  _477
REMARK  187  A    between atoms: _477  and  _478
REMARK  188  A    between atoms: _477  and  _480
REMARK  189  A    between atoms: _480  and  _481
REMARK  190  A    between atoms: _481  and  _482
REMARK  191  A    between atoms: _482  and  _483
REMARK  192  A    between atoms: _483  and  _484
REMARK  193  A    between atoms: _488  and  _490
REMARK  194  A    between atoms: _490  and  _491
REMARK  195  A    between atoms: _490  and  _493
REMARK  196  A    between atoms: _493  and  _494
REMARK  197  A    between atoms: _494  and  _495
REMARK  198  A    between atoms: _495  and  _496
REMARK  199  A    between atoms: _505  and  _507
REMARK  200  A    between atoms: _507  and  _508
REMARK  201  A    between atoms: _507  and  _510
REMARK  202  A    between atoms: _510  and  _511
REMARK  203  A    between atoms: _516  and  _518
REMARK  204  A    between atoms: _518  and  _519
REMARK  205  A    between atoms: _518  and  _521
REMARK  206  A    between atoms: _521  and  _522
REMARK  207  A    between atoms: _527  and  _528
REMARK  208  A    between atoms: _530  and  _532
REMARK  209  A    between atoms: _532  and  _533
REMARK  210  A    between atoms: _532  and  _535
REMARK  211  A    between atoms: _535  and  _536
REMARK  212  A    between atoms: _536  and  _537
REMARK  213  A    between atoms: _537  and  _538
REMARK  214  A    between atoms: _538  and  _539
REMARK  215  A    between atoms: _543  and  _545
REMARK  216  A    between atoms: _545  and  _546
REMARK  217  A    between atoms: _545  and  _548
REMARK  218  A    between atoms: _548  and  _549
REMARK  219  A    between atoms: _551  and  _553
REMARK  220  A    between atoms: _553  and  _554
REMARK  221  A    between atoms: _553  and  _556
REMARK  222  A    between atoms: _556  and  _557
REMARK  223  A    between atoms: _560  and  _562
REMARK  224  A    between atoms: _562  and  _563
REMARK  225  A    between atoms: _562  and  _565
REMARK  226  A    between atoms: _565  and  _566
REMARK  227  A    between atoms: _566  and  _567
REMARK  228  A    between atoms: _570  and  _572
REMARK  229  A    between atoms: _572  and  _573
REMARK  230  A    between atoms: _576  and  _578
REMARK  231  A    between atoms: _578  and  _579
REMARK  232  A    between atoms: _578  and  _581
REMARK  233  A    between atoms: _581  and  _582
REMARK  234  A    between atoms: _584  and  _586
REMARK  235  A    between atoms: _586  and  _587
REMARK  236  A    between atoms: _589  and  _591
REMARK  237  A    between atoms: _591  and  _592
REMARK  238  A    between atoms: _591  and  _594
REMARK  239  A    between atoms: _594  and  _595
REMARK  240  A    between atoms: _598  and  _600
REMARK  241  A    between atoms: _600  and  _601
REMARK  242  A    between atoms: _603  and  _605
REMARK  243  A    between atoms: _605  and  _606
REMARK  244  A    between atoms: _605  and  _608
REMARK  245  A    between atoms: _608  and  _609
REMARK  246  A    between atoms: _614  and  _616
REMARK  247  A    between atoms: _616  and  _617
REMARK  248  A    between atoms: _616  and  _619
REMARK  249  A    between atoms: _619  and  _620
REMARK  250  A    between atoms: _620  and  _621
REMARK  251  A    between atoms: _628  and  _629
REMARK  252  A    between atoms: _629  and  _645
REMARK  253  A    between atoms: _630  and  _632
REMARK  254  A    between atoms: _632  and  _633
REMARK  255  A    between atoms: _633  and  _634
REMARK  256  A    between atoms: _638  and  _640
REMARK  257  A    between atoms: _640  and  _641
REMARK  258  A    between atoms: _640  and  _648
REMARK  259  A    between atoms: _641  and  _642
REMARK  260  A    between atoms: _642  and  _643
REMARK  261  A    between atoms: _643  and  _644
REMARK  262  A    between atoms: _644  and  _645
REMARK  263  A    between atoms: _650  and  _652
REMARK  264  A    between atoms: _652  and  _653
REMARK  265  A    between atoms: _652  and  _655
REMARK  266  A    between atoms: _655  and  _656
REMARK  267  A    between atoms: _659  and  _661
REMARK  268  A    between atoms: _661  and  _662
REMARK  269  A    between atoms: _664  and  _666
REMARK  270  A    between atoms: _666  and  _667
REMARK  271  A    between atoms: _670  and  _672
REMARK  272  A    between atoms: _672  and  _673
REMARK  273  A    between atoms: _672  and  _675
REMARK  274  A    between atoms: _675  and  _676
REMARK  275  A    between atoms: _679  and  _681
REMARK  276  A    between atoms: _681  and  _682
REMARK  277  A    between atoms: _681  and  _684
REMARK  278  A    between atoms: _684  and  _685
REMARK  279  A    between atoms: _690  and  _691
REMARK                            x       y       z     vdW  Elec       q    Type
REMARK                         _______ _______ _______ _____ _____    ______ ____
ROOT
ATOM      1  O   HOH     1      34.519  33.034  32.184  0.00  0.00    +0.000 OA
ENDROOT
TORSDOF 0
REMARK  Name = ../refined-set-2016/4eky/4eky_pocket.pdb
REMARK  279 active torsions:
REMARK  status: ('A' for Active; 'I' for Inactive)
REMARK    1  A    between atoms: _1  and  _3
REMARK    2  A    between atoms: _3  and  _4
REMARK    3  A    between atoms: _3  and  _6
REMARK    4  A    between atoms: _6  and  _7
REMARK    5  A    between atoms: _12  and  _13
REMARK    6  A    between atoms: _15  and  _17
REMARK    7  A    between atoms: _17  and  _18
REMARK    8  A    between atoms: _17  and  _20
REMARK    9  A    between atoms: _20  and  _21
REMARK   10  A    between atoms: _21  and  _22
REMARK   11  A    between atoms: _25  and  _27
REMARK   12  A    between atoms: _27  and  _28
REMARK   13  A    between atoms: _27  and  _30
REMARK   14  A    between atoms: _30  and  _31
REMARK   15  A    between atoms: _36  and  _37
REMARK   16  A    between atoms: _39  and  _41
REMARK   17  A    between atoms: _41  and  _42
REMARK   18  A    between atoms: _41  and  _44
REMARK   19  A    between atoms: _44  and  _45
REMARK   20  A    between atoms: _50  and  _52
REMARK   21  A    between atoms: _52  and  _53
REMARK   22  A    between atoms: _55  and  _57
REMARK   23  A    between atoms: _57  and  _58
REMARK   24  A    between atoms: _60  and  _62
REMARK   25  A    between atoms: _62  and  _63
REMARK   26  A    between atoms: _62  and  _65
REMARK   27  A    between atoms: _65  and  _66
REMARK   28  A    between atoms: _69  and  _71
REMARK   29  A    between atoms: _71  and  _72
REMARK   30  A    between atoms: _74  and  _76
REMARK   31  A    between atoms: _76  and  _77
REMARK   32  A    between atoms: _76  and  _79
REMARK   33  A    between atoms: _79  and  _80
REMARK   34  A    between atoms: _80  and  _81
REMARK   35  A    between atoms: _81  and  _82
REMARK   36  A    between atoms: _91  and  _93
REMARK   37  A    between atoms: _93  and  _94
REMARK   38  A    between atoms: _93  and  _96
REMARK   39  A    between atoms: _96  and  _97
REMARK   40  A    between atoms: _100  and  _102
REMARK   41  A    between atoms: _102  and  _103
REMARK   42  A    between atoms: _106  and  _108
REMARK   43  A    between atoms: _108  and  _109
REMARK   44  A    between atoms: _108  and  _111
REMARK   45  A    between atoms: _111  and  _112
REMARK   46  A    between atoms: _118  and  _120
REMARK   47  A    between atoms: _120  and  _121
REMARK   48  A    between atoms: _120  and  _123
REMARK   49  A    between atoms: _123  and  _124
REMARK   50  A    between atoms: _129  and  _131
REMARK   51  A    between atoms: _131  and  _132
REMARK   52  A    between atoms: _131  and  _134
REMARK   53  A    between atoms: _134  and  _135
REMARK   54  A    between atoms: _138  and  _140
REMARK   55  A    between atoms: _140  and  _141
REMARK   56  A    between atoms: _140  and  _143
REMARK   57  A    between atoms: _143  and  _144
REMARK   58  A    between atoms: _149  and  _151
REMARK   59  A    between atoms: _151  and  _152
REMARK   60  A    between atoms: _151  and  _154
REMARK   61  A    between atoms: _154  and  _155
REMARK   62  A    between atoms: _161  and  _163
REMARK   63  A    between atoms: _163  and  _164
REMARK   64  A    between atoms: _163  and  _166
REMARK   65  A    between atoms: _166  and  _167
REMARK   66  A    between atoms: _173  and  _175
REMARK   67  A    between atoms: _175  and  _176
REMARK   68  A    between atoms: _175  and  _178
REMARK   69  A    between atoms: _178  and  _179
REMARK   70  A    between atoms: _179  and  _180
REMARK   71  A    between atoms: _180  and  _181
REMARK   72  A    between atoms: _190  and  _192
REMARK   73  A    between atoms: _192  and  _193
REMARK   74  A    between atoms: _192  and  _195
REMARK   75  A    between atoms: _195  and  _196
REMARK   76  A    between atoms: _196  and  _197
REMARK   77  A    between atoms: _200  and  _202
REMARK   78  A    between atoms: _202  and  _203
REMARK   79  A    between atoms: _202  and  _205
REMARK   80  A    between atoms: _205  and  _206
REMARK   81  A    between atoms: _211  and  _213
REMARK   82  A    between atoms: _213  and  _214
REMARK   83  A    between atoms: _213  and  _216
REMARK   84  A    between atoms: _216  and  _217
REMARK   85  A    between atoms: _220  and  _222
REMARK   86  A    between atoms: _222  and  _223
REMARK   87  A    between atoms: _222  and  _225
REMARK   88  A    between atoms: _225  and  _226
REMARK   89  A    between atoms: _229  and  _231
REMARK   90  A    between atoms: _231  and  _232
REMARK   91  A    between atoms: _231  and  _234
REMARK   92  A    between atoms: _234  and  _235
REMARK   93  A    between atoms: _241  and  _242
REMARK   94  A    between atoms: _247  and  _249
REMARK   95  A    between atoms: _249  and  _250
REMARK   96  A    between atoms: _249  and  _252
REMARK   97  A    between atoms: _252  and  _253
REMARK   98  A    between atoms: _258  and  _259
REMARK   99  A    between atoms: _261  and  _263
REMARK  100  A    between atoms: _263  and  _264
REMARK  101  A    between atoms: _263  and  _266
REMARK  102  A    between atoms: _266  and  _267
REMARK  103  A    between atoms: _270  and  _272
REMARK  104  A    between atoms: _272  and  _273
REMARK  105  A    between atoms: _272  and  _275
REMARK  106  A    between atoms: _275  and  _276
REMARK  107  A    between atoms: _281  and  _283
REMARK  108  A    between atoms: _283  and  _284
REMARK  109  A    between atoms: _283  and  _286
REMARK  110  A    between atoms: _286  and  _287
REMARK  111  A    between atoms: _292  and  _294
REMARK  112  A    between atoms: _294  and  _295
REMARK  113  A    between atoms: _294  and  _297
REMARK  114  A    between atoms: _297  and  _298
REMARK  115  A    between atoms: _301  and  _303
REMARK  116  A    between atoms: _303  and  _304
REMARK  117  A    between atoms: _303  and  _306
REMARK  118  A    between atoms: _309  and  _311
REMARK  119  A    between atoms: _311  and  _312
REMARK  120  A    between atoms: _311  and  _314
REMARK  121  A    between atoms: _314  and  _315
REMARK  122  A    between atoms: _319  and  _320
REMARK  123  A    between atoms: _325  and  _327
REMARK  124  A    between atoms: _327  and  _328
REMARK  125  A    between atoms: _327  and  _330
REMARK  126  A    between atoms: _330  and  _331
REMARK  127  A    between atoms: _331  and  _332
REMARK  128  A    between atoms: _335  and  _337
REMARK  129  A    between atoms: _337  and  _338
REMARK  130  A    between atoms: _341  and  _343
REMARK  131  A    between atoms: _343  and  _344
REMARK  132  A    between atoms: _343  and  _346
REMARK  133  A    between atoms: _346  and  _347
REMARK  134  A    between atoms: _350  and  _352
REMARK  135  A    between atoms: _352  and  _353
REMARK  136  A    between atoms: _352  and  _355
REMARK  137  A    between atoms: _355  and  _356
REMARK  138  A    between atoms: _356  and  _357
REMARK  139  A    between atoms: _360  and  _362
REMARK  140  A    between atoms: _362  and  _363
REMARK  141  A    between atoms: _362  and  _365
REMARK  142  A    between atoms: _365  and  _366
REMARK  143  A    between atoms: _366  and  _367
REMARK  144  A    between atoms: _369  and  _371
REMARK  145  A    between atoms: _371  and  _372
REMARK  146  A    between atoms: _375  and  _377
REMARK  147  A    between atoms: _377  and  _378
REMARK  148  A    between atoms: _377  and  _380
REMARK  149  A    between atoms: _380  and  _381
REMARK  150  A    between atoms: _386  and  _388
REMARK  151  A    between atoms: _388  and  _389
REMARK  152  A    between atoms: _391  and  _393
REMARK  153  A    between atoms: _393  and  _394
REMARK  154  A    between atoms: _393  and  _396
REMARK  155  A    between atoms: _399  and  _401
REMARK  156  A    between atoms: _401  and  _402
REMARK  157  A    between atoms: _405  and  _407
REMARK  158  A    between atoms: _407  and  _408
REMARK  159  A    between atoms: _407  and  _410
REMARK  160  A    between atoms: _410  and  _411
REMARK  161  A    between atoms: _416  and  _418
REMARK  162  A    between atoms: _418  and  _419
REMARK  163  A    between atoms: _418  and  _421
REMARK  164  A    between atoms: _421  and  _422
REMARK  165  A    between atoms: _428  and  _430
REMARK  166  A    between atoms: _430  and  _431
REMARK  167  A    between atoms: _430  and  _433
REMARK  168  A    between atoms: _433  and  _434
REMARK  169  A    between atoms: _434  and  _435
REMARK  170  A    between atoms: _435  and  _436
REMARK  171  A    between atoms: _436  and  _437
REMARK  172  A    between atoms: _441  and  _443
REMARK  173  A    between atoms: _443  and  _444
REMARK  174  A    between atoms: _443  and  _446
REMARK  175  A    between atoms: _446  and  _447
REMARK  176  A    between atoms: _450  and  _452
REMARK  177  A    between atoms: _452  and  _453
REMARK  178  A    between atoms: _452  and  _455
REMARK  179  A    between atoms: _455  and  _456
REMARK  180  A    between atoms: _461  and  _463
REMARK  181  A    between atoms: _463  and  _464
REMARK  182  A    between atoms: _466  and  _468
REMARK  183  A    between atoms: _468  and  _469
REMARK  184  A    between atoms: _468  and  _471
REMARK  185  A    between atoms: _471  and  _472
REMARK  186  A    between atoms: _475  and  _477
REMARK  187  A    between atoms: _477  and  _478
REMARK  188  A    between atoms: _477  and  _480
REMARK  189  A    between atoms: _480  and  _481
REMARK  190  A    between atoms: _481  and  _482
REMARK  191  A    between atoms: _482  and  _483
REMARK  192  A    between atoms: _483  and  _484
REMARK  193  A    between atoms: _488  and  _490
REMARK  194  A    between atoms: _490  and  _491
REMARK  195  A    between atoms: _490  and  _493
REMARK  196  A    between atoms: _493  and  _494
REMARK  197  A    between atoms: _494  and  _495
REMARK  198  A    between atoms: _495  and  _496
REMARK  199  A    between atoms: _505  and  _507
REMARK  200  A    between atoms: _507  and  _508
REMARK  201  A    between atoms: _507  and  _510
REMARK  202  A    between atoms: _510  and  _511
REMARK  203  A    between atoms: _516  and  _518
REMARK  204  A    between atoms: _518  and  _519
REMARK  205  A    between atoms: _518  and  _521
REMARK  206  A    between atoms: _521  and  _522
REMARK  207  A    between atoms: _527  and  _528
REMARK  208  A    between atoms: _530  and  _532
REMARK  209  A    between atoms: _532  and  _533
REMARK  210  A    between atoms: _532  and  _535
REMARK  211  A    between atoms: _535  and  _536
REMARK  212  A    between atoms: _536  and  _537
REMARK  213  A    between atoms: _537  and  _538
REMARK  214  A    between atoms: _538  and  _539
REMARK  215  A    between atoms: _543  and  _545
REMARK  216  A    between atoms: _545  and  _546
REMARK  217  A    between atoms: _545  and  _548
REMARK  218  A    between atoms: _548  and  _549
REMARK  219  A    between atoms: _551  and  _553
REMARK  220  A    between atoms: _553  and  _554
REMARK  221  A    between atoms: _553  and  _556
REMARK  222  A    between atoms: _556  and  _557
REMARK  223  A    between atoms: _560  and  _562
REMARK  224  A    between atoms: _562  and  _563
REMARK  225  A    between atoms: _562  and  _565
REMARK  226  A    between atoms: _565  and  _566
REMARK  227  A    between atoms: _566  and  _567
REMARK  228  A    between atoms: _570  and  _572
REMARK  229  A    between atoms: _572  and  _573
REMARK  230  A    between atoms: _576  and  _578
REMARK  231  A    between atoms: _578  and  _579
REMARK  232  A    between atoms: _578  and  _581
REMARK  233  A    between atoms: _581  and  _582
REMARK  234  A    between atoms: _584  and  _586
REMARK  235  A    between atoms: _586  and  _587
REMARK  236  A    between atoms: _589  and  _591
REMARK  237  A    between atoms: _591  and  _592
REMARK  238  A    between atoms: _591  and  _594
REMARK  239  A    between atoms: _594  and  _595
REMARK  240  A    between atoms: _598  and  _600
REMARK  241  A    between atoms: _600  and  _601
REMARK  242  A    between atoms: _603  and  _605
REMARK  243  A    between atoms: _605  and  _606
REMARK  244  A    between atoms: _605  and  _608
REMARK  245  A    between atoms: _608  and  _609
REMARK  246  A    between atoms: _614  and  _616
REMARK  247  A    between atoms: _616  and  _617
REMARK  248  A    between atoms: _616  and  _619
REMARK  249  A    between atoms: _619  and  _620
REMARK  250  A    between atoms: _620  and  _621
REMARK  251  A    between atoms: _628  and  _629
REMARK  252  A    between atoms: _629  and  _645
REMARK  253  A    between atoms: _630  and  _632
REMARK  254  A    between atoms: _632  and  _633
REMARK  255  A    between atoms: _633  and  _634
REMARK  256  A    between atoms: _638  and  _640
REMARK  257  A    between atoms: _640  and  _641
REMARK  258  A    between atoms: _640  and  _648
REMARK  259  A    between atoms: _641  and  _642
REMARK  260  A    between atoms: _642  and  _643
REMARK  261  A    between atoms: _643  and  _644
REMARK  262  A    between atoms: _644  and  _645
REMARK  263  A    between atoms: _650  and  _652
REMARK  264  A    between atoms: _652  and  _653
REMARK  265  A    between atoms: _652  and  _655
REMARK  266  A    between atoms: _655  and  _656
REMARK  267  A    between atoms: _659  and  _661
REMARK  268  A    between atoms: _661  and  _662
REMARK  269  A    between atoms: _664  and  _666
REMARK  270  A    between atoms: _666  and  _667
REMARK  271  A    between atoms: _670  and  _672
REMARK  272  A    between atoms: _672  and  _673
REMARK  273  A    between atoms: _672  and  _675
REMARK  274  A    between atoms: _675  and  _676
REMARK  275  A    between atoms: _679  and  _681
REMARK  276  A    between atoms: _681  and  _682
REMARK  277  A    between atoms: _681  and  _684
REMARK  278  A    between atoms: _684  and  _685
REMARK  279  A    between atoms: _690  and  _691
REMARK                            x       y       z     vdW  Elec       q    Type
REMARK                         _______ _______ _______ _____ _____    ______ ____
ROOT
ATOM      1  O   HOH     1      26.086  16.668  28.647  0.00  0.00    +0.000 OA
ENDROOT
TORSDOF 0
REMARK  Name = ../refined-set-2016/4eky/4eky_pocket.pdb
REMARK  279 active torsions:
REMARK  status: ('A' for Active; 'I' for Inactive)
REMARK    1  A    between atoms: _1  and  _3
REMARK    2  A    between atoms: _3  and  _4
REMARK    3  A    between atoms: _3  and  _6
REMARK    4  A    between atoms: _6  and  _7
REMARK    5  A    between atoms: _12  and  _13
REMARK    6  A    between atoms: _15  and  _17
REMARK    7  A    between atoms: _17  and  _18
REMARK    8  A    between atoms: _17  and  _20
REMARK    9  A    between atoms: _20  and  _21
REMARK   10  A    between atoms: _21  and  _22
REMARK   11  A    between atoms: _25  and  _27
REMARK   12  A    between atoms: _27  and  _28
REMARK   13  A    between atoms: _27  and  _30
REMARK   14  A    between atoms: _30  and  _31
REMARK   15  A    between atoms: _36  and  _37
REMARK   16  A    between atoms: _39  and  _41
REMARK   17  A    between atoms: _41  and  _42
REMARK   18  A    between atoms: _41  and  _44
REMARK   19  A    between atoms: _44  and  _45
REMARK   20  A    between atoms: _50  and  _52
REMARK   21  A    between atoms: _52  and  _53
REMARK   22  A    between atoms: _55  and  _57
REMARK   23  A    between atoms: _57  and  _58
REMARK   24  A    between atoms: _60  and  _62
REMARK   25  A    between atoms: _62  and  _63
REMARK   26  A    between atoms: _62  and  _65
REMARK   27  A    between atoms: _65  and  _66
REMARK   28  A    between atoms: _69  and  _71
REMARK   29  A    between atoms: _71  and  _72
REMARK   30  A    between atoms: _74  and  _76
REMARK   31  A    between atoms: _76  and  _77
REMARK   32  A    between atoms: _76  and  _79
REMARK   33  A    between atoms: _79  and  _80
REMARK   34  A    between atoms: _80  and  _81
REMARK   35  A    between atoms: _81  and  _82
REMARK   36  A    between atoms: _91  and  _93
REMARK   37  A    between atoms: _93  and  _94
REMARK   38  A    between atoms: _93  and  _96
REMARK   39  A    between atoms: _96  and  _97
REMARK   40  A    between atoms: _100  and  _102
REMARK   41  A    between atoms: _102  and  _103
REMARK   42  A    between atoms: _106  and  _108
REMARK   43  A    between atoms: _108  and  _109
REMARK   44  A    between atoms: _108  and  _111
REMARK   45  A    between atoms: _111  and  _112
REMARK   46  A    between atoms: _118  and  _120
REMARK   47  A    between atoms: _120  and  _121
REMARK   48  A    between atoms: _120  and  _123
REMARK   49  A    between atoms: _123  and  _124
REMARK   50  A    between atoms: _129  and  _131
REMARK   51  A    between atoms: _131  and  _132
REMARK   52  A    between atoms: _131  and  _134
REMARK   53  A    between atoms: _134  and  _135
REMARK   54  A    between atoms: _138  and  _140
REMARK   55  A    between atoms: _140  and  _141
REMARK   56  A    between atoms: _140  and  _143
REMARK   57  A    between atoms: _143  and  _144
REMARK   58  A    between atoms: _149  and  _151
REMARK   59  A    between atoms: _151  and  _152
REMARK   60  A    between atoms: _151  and  _154
REMARK   61  A    between atoms: _154  and  _155
REMARK   62  A    between atoms: _161  and  _163
REMARK   63  A    between atoms: _163  and  _164
REMARK   64  A    between atoms: _163  and  _166
REMARK   65  A    between atoms: _166  and  _167
REMARK   66  A    between atoms: _173  and  _175
REMARK   67  A    between atoms: _175  and  _176
REMARK   68  A    between atoms: _175  and  _178
REMARK   69  A    between atoms: _178  and  _179
REMARK   70  A    between atoms: _179  and  _180
REMARK   71  A    between atoms: _180  and  _181
REMARK   72  A    between atoms: _190  and  _192
REMARK   73  A    between atoms: _192  and  _193
REMARK   74  A    between atoms: _192  and  _195
REMARK   75  A    between atoms: _195  and  _196
REMARK   76  A    between atoms: _196  and  _197
REMARK   77  A    between atoms: _200  and  _202
REMARK   78  A    between atoms: _202  and  _203
REMARK   79  A    between atoms: _202  and  _205
REMARK   80  A    between atoms: _205  and  _206
REMARK   81  A    between atoms: _211  and  _213
REMARK   82  A    between atoms: _213  and  _214
REMARK   83  A    between atoms: _213  and  _216
REMARK   84  A    between atoms: _216  and  _217
REMARK   85  A    between atoms: _220  and  _222
REMARK   86  A    between atoms: _222  and  _223
REMARK   87  A    between atoms: _222  and  _225
REMARK   88  A    between atoms: _225  and  _226
REMARK   89  A    between atoms: _229  and  _231
REMARK   90  A    between atoms: _231  and  _232
REMARK   91  A    between atoms: _231  and  _234
REMARK   92  A    between atoms: _234  and  _235
REMARK   93  A    between atoms: _241  and  _242
REMARK   94  A    between atoms: _247  and  _249
REMARK   95  A    between atoms: _249  and  _250
REMARK   96  A    between atoms: _249  and  _252
REMARK   97  A    between atoms: _252  and  _253
REMARK   98  A    between atoms: _258  and  _259
REMARK   99  A    between atoms: _261  and  _263
REMARK  100  A    between atoms: _263  and  _264
REMARK  101  A    between atoms: _263  and  _266
REMARK  102  A    between atoms: _266  and  _267
REMARK  103  A    between atoms: _270  and  _272
REMARK  104  A    between atoms: _272  and  _273
REMARK  105  A    between atoms: _272  and  _275
REMARK  106  A    between atoms: _275  and  _276
REMARK  107  A    between atoms: _281  and  _283
REMARK  108  A    between atoms: _283  and  _284
REMARK  109  A    between atoms: _283  and  _286
REMARK  110  A    between atoms: _286  and  _287
REMARK  111  A    between atoms: _292  and  _294
REMARK  112  A    between atoms: _294  and  _295
REMARK  113  A    between atoms: _294  and  _297
REMARK  114  A    between atoms: _297  and  _298
REMARK  115  A    between atoms: _301  and  _303
REMARK  116  A    between atoms: _303  and  _304
REMARK  117  A    between atoms: _303  and  _306
REMARK  118  A    between atoms: _309  and  _311
REMARK  119  A    between atoms: _311  and  _312
REMARK  120  A    between atoms: _311  and  _314
REMARK  121  A    between atoms: _314  and  _315
REMARK  122  A    between atoms: _319  and  _320
REMARK  123  A    between atoms: _325  and  _327
REMARK  124  A    between atoms: _327  and  _328
REMARK  125  A    between atoms: _327  and  _330
REMARK  126  A    between atoms: _330  and  _331
REMARK  127  A    between atoms: _331  and  _332
REMARK  128  A    between atoms: _335  and  _337
REMARK  129  A    between atoms: _337  and  _338
REMARK  130  A    between atoms: _341  and  _343
REMARK  131  A    between atoms: _343  and  _344
REMARK  132  A    between atoms: _343  and  _346
REMARK  133  A    between atoms: _346  and  _347
REMARK  134  A    between atoms: _350  and  _352
REMARK  135  A    between atoms: _352  and  _353
REMARK  136  A    between atoms: _352  and  _355
REMARK  137  A    between atoms: _355  and  _356
REMARK  138  A    between atoms: _356  and  _357
REMARK  139  A    between atoms: _360  and  _362
REMARK  140  A    between atoms: _362  and  _363
REMARK  141  A    between atoms: _362  and  _365
REMARK  142  A    between atoms: _365  and  _366
REMARK  143  A    between atoms: _366  and  _367
REMARK  144  A    between atoms: _369  and  _371
REMARK  145  A    between atoms: _371  and  _372
REMARK  146  A    between atoms: _375  and  _377
REMARK  147  A    between atoms: _377  and  _378
REMARK  148  A    between atoms: _377  and  _380
REMARK  149  A    between atoms: _380  and  _381
REMARK  150  A    between atoms: _386  and  _388
REMARK  151  A    between atoms: _388  and  _389
REMARK  152  A    between atoms: _391  and  _393
REMARK  153  A    between atoms: _393  and  _394
REMARK  154  A    between atoms: _393  and  _396
REMARK  155  A    between atoms: _399  and  _401
REMARK  156  A    between atoms: _401  and  _402
REMARK  157  A    between atoms: _405  and  _407
REMARK  158  A    between atoms: _407  and  _408
REMARK  159  A    between atoms: _407  and  _410
REMARK  160  A    between atoms: _410  and  _411
REMARK  161  A    between atoms: _416  and  _418
REMARK  162  A    between atoms: _418  and  _419
REMARK  163  A    between atoms: _418  and  _421
REMARK  164  A    between atoms: _421  and  _422
REMARK  165  A    between atoms: _428  and  _430
REMARK  166  A    between atoms: _430  and  _431
REMARK  167  A    between atoms: _430  and  _433
REMARK  168  A    between atoms: _433  and  _434
REMARK  169  A    between atoms: _434  and  _435
REMARK  170  A    between atoms: _435  and  _436
REMARK  171  A    between atoms: _436  and  _437
REMARK  172  A    between atoms: _441  and  _443
REMARK  173  A    between atoms: _443  and  _444
REMARK  174  A    between atoms: _443  and  _446
REMARK  175  A    between atoms: _446  and  _447
REMARK  176  A    between atoms: _450  and  _452
REMARK  177  A    between atoms: _452  and  _453
REMARK  178  A    between atoms: _452  and  _455
REMARK  179  A    between atoms: _455  and  _456
REMARK  180  A    between atoms: _461  and  _463
REMARK  181  A    between atoms: _463  and  _464
REMARK  182  A    between atoms: _466  and  _468
REMARK  183  A    between atoms: _468  and  _469
REMARK  184  A    between atoms: _468  and  _471
REMARK  185  A    between atoms: _471  and  _472
REMARK  186  A    between atoms: _475  and  _477
REMARK  187  A    between atoms: _477  and  _478
REMARK  188  A    between atoms: _477  and  _480
REMARK  189  A    between atoms: _480  and  _481
REMARK  190  A    between atoms: _481  and  _482
REMARK  191  A    between atoms: _482  and  _483
REMARK  192  A    between atoms: _483  and  _484
REMARK  193  A    between atoms: _488  and  _490
REMARK  194  A    between atoms: _490  and  _491
REMARK  195  A    between atoms: _490  and  _493
REMARK  196  A    between atoms: _493  and  _494
REMARK  197  A    between atoms: _494  and  _495
REMARK  198  A    between atoms: _495  and  _496
REMARK  199  A    between atoms: _505  and  _507
REMARK  200  A    between atoms: _507  and  _508
REMARK  201  A    between atoms: _507  and  _510
REMARK  202  A    between atoms: _510  and  _511
REMARK  203  A    between atoms: _516  and  _518
REMARK  204  A    between atoms: _518  and  _519
REMARK  205  A    between atoms: _518  and  _521
REMARK  206  A    between atoms: _521  and  _522
REMARK  207  A    between atoms: _527  and  _528
REMARK  208  A    between atoms: _530  and  _532
REMARK  209  A    between atoms: _532  and  _533
REMARK  210  A    between atoms: _532  and  _535
REMARK  211  A    between atoms: _535  and  _536
REMARK  212  A    between atoms: _536  and  _537
REMARK  213  A    between atoms: _537  and  _538
REMARK  214  A    between atoms: _538  and  _539
REMARK  215  A    between atoms: _543  and  _545
REMARK  216  A    between atoms: _545  and  _546
REMARK  217  A    between atoms: _545  and  _548
REMARK  218  A    between atoms: _548  and  _549
REMARK  219  A    between atoms: _551  and  _553
REMARK  220  A    between atoms: _553  and  _554
REMARK  221  A    between atoms: _553  and  _556
REMARK  222  A    between atoms: _556  and  _557
REMARK  223  A    between atoms: _560  and  _562
REMARK  224  A    between atoms: _562  and  _563
REMARK  225  A    between atoms: _562  and  _565
REMARK  226  A    between atoms: _565  and  _566
REMARK  227  A    between atoms: _566  and  _567
REMARK  228  A    between atoms: _570  and  _572
REMARK  229  A    between atoms: _572  and  _573
REMARK  230  A    between atoms: _576  and  _578
REMARK  231  A    between atoms: _578  and  _579
REMARK  232  A    between atoms: _578  and  _581
REMARK  233  A    between atoms: _581  and  _582
REMARK  234  A    between atoms: _584  and  _586
REMARK  235  A    between atoms: _586  and  _587
REMARK  236  A    between atoms: _589  and  _591
REMARK  237  A    between atoms: _591  and  _592
REMARK  238  A    between atoms: _591  and  _594
REMARK  239  A    between atoms: _594  and  _595
REMARK  240  A    between atoms: _598  and  _600
REMARK  241  A    between atoms: _600  and  _601
REMARK  242  A    between atoms: _603  and  _605
REMARK  243  A    between atoms: _605  and  _606
REMARK  244  A    between atoms: _605  and  _608
REMARK  245  A    between atoms: _608  and  _609
REMARK  246  A    between atoms: _614  and  _616
REMARK  247  A    between atoms: _616  and  _617
REMARK  248  A    between atoms: _616  and  _619
REMARK  249  A    between atoms: _619  and  _620
REMARK  250  A    between atoms: _620  and  _621
REMARK  251  A    between atoms: _628  and  _629
REMARK  252  A    between atoms: _629  and  _645
REMARK  253  A    between atoms: _630  and  _632
REMARK  254  A    between atoms: _632  and  _633
REMARK  255  A    between atoms: _633  and  _634
REMARK  256  A    between atoms: _638  and  _640
REMARK  257  A    between atoms: _640  and  _641
REMARK  258  A    between atoms: _640  and  _648
REMARK  259  A    between atoms: _641  and  _642
REMARK  260  A    between atoms: _642  and  _643
REMARK  261  A    between atoms: _643  and  _644
REMARK  262  A    between atoms: _644  and  _645
REMARK  263  A    between atoms: _650  and  _652
REMARK  264  A    between atoms: _652  and  _653
REMARK  265  A    between atoms: _652  and  _655
REMARK  266  A    between atoms: _655  and  _656
REMARK  267  A    between atoms: _659  and  _661
REMARK  268  A    between atoms: _661  and  _662
REMARK  269  A    between atoms: _664  and  _666
REMARK  270  A    between atoms: _666  and  _667
REMARK  271  A    between atoms: _670  and  _672
REMARK  272  A    between atoms: _672  and  _673
REMARK  273  A    between atoms: _672  and  _675
REMARK  274  A    between atoms: _675  and  _676
REMARK  275  A    between atoms: _679  and  _681
REMARK  276  A    between atoms: _681  and  _682
REMARK  277  A    between atoms: _681  and  _684
REMARK  278  A    between atoms: _684  and  _685
REMARK  279  A    between atoms: _690  and  _691
REMARK                            x       y       z     vdW  Elec       q    Type
REMARK                         _______ _______ _______ _____ _____    ______ ____
ROOT
ATOM      1  O   HOH     1      30.458  26.436  29.551  0.00  0.00    +0.000 OA
ENDROOT
TORSDOF 0
REMARK  Name = ../refined-set-2016/4eky/4eky_pocket.pdb
REMARK  279 active torsions:
REMARK  status: ('A' for Active; 'I' for Inactive)
REMARK    1  A    between atoms: _1  and  _3
REMARK    2  A    between atoms: _3  and  _4
REMARK    3  A    between atoms: _3  and  _6
REMARK    4  A    between atoms: _6  and  _7
REMARK    5  A    between atoms: _12  and  _13
REMARK    6  A    between atoms: _15  and  _17
REMARK    7  A    between atoms: _17  and  _18
REMARK    8  A    between atoms: _17  and  _20
REMARK    9  A    between atoms: _20  and  _21
REMARK   10  A    between atoms: _21  and  _22
REMARK   11  A    between atoms: _25  and  _27
REMARK   12  A    between atoms: _27  and  _28
REMARK   13  A    between atoms: _27  and  _30
REMARK   14  A    between atoms: _30  and  _31
REMARK   15  A    between atoms: _36  and  _37
REMARK   16  A    between atoms: _39  and  _41
REMARK   17  A    between atoms: _41  and  _42
REMARK   18  A    between atoms: _41  and  _44
REMARK   19  A    between atoms: _44  and  _45
REMARK   20  A    between atoms: _50  and  _52
REMARK   21  A    between atoms: _52  and  _53
REMARK   22  A    between atoms: _55  and  _57
REMARK   23  A    between atoms: _57  and  _58
REMARK   24  A    between atoms: _60  and  _62
REMARK   25  A    between atoms: _62  and  _63
REMARK   26  A    between atoms: _62  and  _65
REMARK   27  A    between atoms: _65  and  _66
REMARK   28  A    between atoms: _69  and  _71
REMARK   29  A    between atoms: _71  and  _72
REMARK   30  A    between atoms: _74  and  _76
REMARK   31  A    between atoms: _76  and  _77
REMARK   32  A    between atoms: _76  and  _79
REMARK   33  A    between atoms: _79  and  _80
REMARK   34  A    between atoms: _80  and  _81
REMARK   35  A    between atoms: _81  and  _82
REMARK   36  A    between atoms: _91  and  _93
REMARK   37  A    between atoms: _93  and  _94
REMARK   38  A    between atoms: _93  and  _96
REMARK   39  A    between atoms: _96  and  _97
REMARK   40  A    between atoms: _100  and  _102
REMARK   41  A    between atoms: _102  and  _103
REMARK   42  A    between atoms: _106  and  _108
REMARK   43  A    between atoms: _108  and  _109
REMARK   44  A    between atoms: _108  and  _111
REMARK   45  A    between atoms: _111  and  _112
REMARK   46  A    between atoms: _118  and  _120
REMARK   47  A    between atoms: _120  and  _121
REMARK   48  A    between atoms: _120  and  _123
REMARK   49  A    between atoms: _123  and  _124
REMARK   50  A    between atoms: _129  and  _131
REMARK   51  A    between atoms: _131  and  _132
REMARK   52  A    between atoms: _131  and  _134
REMARK   53  A    between atoms: _134  and  _135
REMARK   54  A    between atoms: _138  and  _140
REMARK   55  A    between atoms: _140  and  _141
REMARK   56  A    between atoms: _140  and  _143
REMARK   57  A    between atoms: _143  and  _144
REMARK   58  A    between atoms: _149  and  _151
REMARK   59  A    between atoms: _151  and  _152
REMARK   60  A    between atoms: _151  and  _154
REMARK   61  A    between atoms: _154  and  _155
REMARK   62  A    between atoms: _161  and  _163
REMARK   63  A    between atoms: _163  and  _164
REMARK   64  A    between atoms: _163  and  _166
REMARK   65  A    between atoms: _166  and  _167
REMARK   66  A    between atoms: _173  and  _175
REMARK   67  A    between atoms: _175  and  _176
REMARK   68  A    between atoms: _175  and  _178
REMARK   69  A    between atoms: _178  and  _179
REMARK   70  A    between atoms: _179  and  _180
REMARK   71  A    between atoms: _180  and  _181
REMARK   72  A    between atoms: _190  and  _192
REMARK   73  A    between atoms: _192  and  _193
REMARK   74  A    between atoms: _192  and  _195
REMARK   75  A    between atoms: _195  and  _196
REMARK   76  A    between atoms: _196  and  _197
REMARK   77  A    between atoms: _200  and  _202
REMARK   78  A    between atoms: _202  and  _203
REMARK   79  A    between atoms: _202  and  _205
REMARK   80  A    between atoms: _205  and  _206
REMARK   81  A    between atoms: _211  and  _213
REMARK   82  A    between atoms: _213  and  _214
REMARK   83  A    between atoms: _213  and  _216
REMARK   84  A    between atoms: _216  and  _217
REMARK   85  A    between atoms: _220  and  _222
REMARK   86  A    between atoms: _222  and  _223
REMARK   87  A    between atoms: _222  and  _225
REMARK   88  A    between atoms: _225  and  _226
REMARK   89  A    between atoms: _229  and  _231
REMARK   90  A    between atoms: _231  and  _232
REMARK   91  A    between atoms: _231  and  _234
REMARK   92  A    between atoms: _234  and  _235
REMARK   93  A    between atoms: _241  and  _242
REMARK   94  A    between atoms: _247  and  _249
REMARK   95  A    between atoms: _249  and  _250
REMARK   96  A    between atoms: _249  and  _252
REMARK   97  A    between atoms: _252  and  _253
REMARK   98  A    between atoms: _258  and  _259
REMARK   99  A    between atoms: _261  and  _263
REMARK  100  A    between atoms: _263  and  _264
REMARK  101  A    between atoms: _263  and  _266
REMARK  102  A    between atoms: _266  and  _267
REMARK  103  A    between atoms: _270  and  _272
REMARK  104  A    between atoms: _272  and  _273
REMARK  105  A    between atoms: _272  and  _275
REMARK  106  A    between atoms: _275  and  _276
REMARK  107  A    between atoms: _281  and  _283
REMARK  108  A    between atoms: _283  and  _284
REMARK  109  A    between atoms: _283  and  _286
REMARK  110  A    between atoms: _286  and  _287
REMARK  111  A    between atoms: _292  and  _294
REMARK  112  A    between atoms: _294  and  _295
REMARK  113  A    between atoms: _294  and  _297
REMARK  114  A    between atoms: _297  and  _298
REMARK  115  A    between atoms: _301  and  _303
REMARK  116  A    between atoms: _303  and  _304
REMARK  117  A    between atoms: _303  and  _306
REMARK  118  A    between atoms: _309  and  _311
REMARK  119  A    between atoms: _311  and  _312
REMARK  120  A    between atoms: _311  and  _314
REMARK  121  A    between atoms: _314  and  _315
REMARK  122  A    between atoms: _319  and  _320
REMARK  123  A    between atoms: _325  and  _327
REMARK  124  A    between atoms: _327  and  _328
REMARK  125  A    between atoms: _327  and  _330
REMARK  126  A    between atoms: _330  and  _331
REMARK  127  A    between atoms: _331  and  _332
REMARK  128  A    between atoms: _335  and  _337
REMARK  129  A    between atoms: _337  and  _338
REMARK  130  A    between atoms: _341  and  _343
REMARK  131  A    between atoms: _343  and  _344
REMARK  132  A    between atoms: _343  and  _346
REMARK  133  A    between atoms: _346  and  _347
REMARK  134  A    between atoms: _350  and  _352
REMARK  135  A    between atoms: _352  and  _353
REMARK  136  A    between atoms: _352  and  _355
REMARK  137  A    between atoms: _355  and  _356
REMARK  138  A    between atoms: _356  and  _357
REMARK  139  A    between atoms: _360  and  _362
REMARK  140  A    between atoms: _362  and  _363
REMARK  141  A    between atoms: _362  and  _365
REMARK  142  A    between atoms: _365  and  _366
REMARK  143  A    between atoms: _366  and  _367
REMARK  144  A    between atoms: _369  and  _371
REMARK  145  A    between atoms: _371  and  _372
REMARK  146  A    between atoms: _375  and  _377
REMARK  147  A    between atoms: _377  and  _378
REMARK  148  A    between atoms: _377  and  _380
REMARK  149  A    between atoms: _380  and  _381
REMARK  150  A    between atoms: _386  and  _388
REMARK  151  A    between atoms: _388  and  _389
REMARK  152  A    between atoms: _391  and  _393
REMARK  153  A    between atoms: _393  and  _394
REMARK  154  A    between atoms: _393  and  _396
REMARK  155  A    between atoms: _399  and  _401
REMARK  156  A    between atoms: _401  and  _402
REMARK  157  A    between atoms: _405  and  _407
REMARK  158  A    between atoms: _407  and  _408
REMARK  159  A    between atoms: _407  and  _410
REMARK  160  A    between atoms: _410  and  _411
REMARK  161  A    between atoms: _416  and  _418
REMARK  162  A    between atoms: _418  and  _419
REMARK  163  A    between atoms: _418  and  _421
REMARK  164  A    between atoms: _421  and  _422
REMARK  165  A    between atoms: _428  and  _430
REMARK  166  A    between atoms: _430  and  _431
REMARK  167  A    between atoms: _430  and  _433
REMARK  168  A    between atoms: _433  and  _434
REMARK  169  A    between atoms: _434  and  _435
REMARK  170  A    between atoms: _435  and  _436
REMARK  171  A    between atoms: _436  and  _437
REMARK  172  A    between atoms: _441  and  _443
REMARK  173  A    between atoms: _443  and  _444
REMARK  174  A    between atoms: _443  and  _446
REMARK  175  A    between atoms: _446  and  _447
REMARK  176  A    between atoms: _450  and  _452
REMARK  177  A    between atoms: _452  and  _453
REMARK  178  A    between atoms: _452  and  _455
REMARK  179  A    between atoms: _455  and  _456
REMARK  180  A    between atoms: _461  and  _463
REMARK  181  A    between atoms: _463  and  _464
REMARK  182  A    between atoms: _466  and  _468
REMARK  183  A    between atoms: _468  and  _469
REMARK  184  A    between atoms: _468  and  _471
REMARK  185  A    between atoms: _471  and  _472
REMARK  186  A    between atoms: _475  and  _477
REMARK  187  A    between atoms: _477  and  _478
REMARK  188  A    between atoms: _477  and  _480
REMARK  189  A    between atoms: _480  and  _481
REMARK  190  A    between atoms: _481  and  _482
REMARK  191  A    between atoms: _482  and  _483
REMARK  192  A    between atoms: _483  and  _484
REMARK  193  A    between atoms: _488  and  _490
REMARK  194  A    between atoms: _490  and  _491
REMARK  195  A    between atoms: _490  and  _493
REMARK  196  A    between atoms: _493  and  _494
REMARK  197  A    between atoms: _494  and  _495
REMARK  198  A    between atoms: _495  and  _496
REMARK  199  A    between atoms: _505  and  _507
REMARK  200  A    between atoms: _507  and  _508
REMARK  201  A    between atoms: _507  and  _510
REMARK  202  A    between atoms: _510  and  _511
REMARK  203  A    between atoms: _516  and  _518
REMARK  204  A    between atoms: _518  and  _519
REMARK  205  A    between atoms: _518  and  _521
REMARK  206  A    between atoms: _521  and  _522
REMARK  207  A    between atoms: _527  and  _528
REMARK  208  A    between atoms: _530  and  _532
REMARK  209  A    between atoms: _532  and  _533
REMARK  210  A    between atoms: _532  and  _535
REMARK  211  A    between atoms: _535  and  _536
REMARK  212  A    between atoms: _536  and  _537
REMARK  213  A    between atoms: _537  and  _538
REMARK  214  A    between atoms: _538  and  _539
REMARK  215  A    between atoms: _543  and  _545
REMARK  216  A    between atoms: _545  and  _546
REMARK  217  A    between atoms: _545  and  _548
REMARK  218  A    between atoms: _548  and  _549
REMARK  219  A    between atoms: _551  and  _553
REMARK  220  A    between atoms: _553  and  _554
REMARK  221  A    between atoms: _553  and  _556
REMARK  222  A    between atoms: _556  and  _557
REMARK  223  A    between atoms: _560  and  _562
REMARK  224  A    between atoms: _562  and  _563
REMARK  225  A    between atoms: _562  and  _565
REMARK  226  A    between atoms: _565  and  _566
REMARK  227  A    between atoms: _566  and  _567
REMARK  228  A    between atoms: _570  and  _572
REMARK  229  A    between atoms: _572  and  _573
REMARK  230  A    between atoms: _576  and  _578
REMARK  231  A    between atoms: _578  and  _579
REMARK  232  A    between atoms: _578  and  _581
REMARK  233  A    between atoms: _581  and  _582
REMARK  234  A    between atoms: _584  and  _586
REMARK  235  A    between atoms: _586  and  _587
REMARK  236  A    between atoms: _589  and  _591
REMARK  237  A    between atoms: _591  and  _592
REMARK  238  A    between atoms: _591  and  _594
REMARK  239  A    between atoms: _594  and  _595
REMARK  240  A    between atoms: _598  and  _600
REMARK  241  A    between atoms: _600  and  _601
REMARK  242  A    between atoms: _603  and  _605
REMARK  243  A    between atoms: _605  and  _606
REMARK  244  A    between atoms: _605  and  _608
REMARK  245  A    between atoms: _608  and  _609
REMARK  246  A    between atoms: _614  and  _616
REMARK  247  A    between atoms: _616  and  _617
REMARK  248  A    between atoms: _616  and  _619
REMARK  249  A    between atoms: _619  and  _620
REMARK  250  A    between atoms: _620  and  _621
REMARK  251  A    between atoms: _628  and  _629
REMARK  252  A    between atoms: _629  and  _645
REMARK  253  A    between atoms: _630  and  _632
REMARK  254  A    between atoms: _632  and  _633
REMARK  255  A    between atoms: _633  and  _634
REMARK  256  A    between atoms: _638  and  _640
REMARK  257  A    between atoms: _640  and  _641
REMARK  258  A    between atoms: _640  and  _648
REMARK  259  A    between atoms: _641  and  _642
REMARK  260  A    between atoms: _642  and  _643
REMARK  261  A    between atoms: _643  and  _644
REMARK  262  A    between atoms: _644  and  _645
REMARK  263  A    between atoms: _650  and  _652
REMARK  264  A    between atoms: _652  and  _653
REMARK  265  A    between atoms: _652  and  _655
REMARK  266  A    between atoms: _655  and  _656
REMARK  267  A    between atoms: _659  and  _661
REMARK  268  A    between atoms: _661  and  _662
REMARK  269  A    between atoms: _664  and  _666
REMARK  270  A    between atoms: _666  and  _667
REMARK  271  A    between atoms: _670  and  _672
REMARK  272  A    between atoms: _672  and  _673
REMARK  273  A    between atoms: _672  and  _675
REMARK  274  A    between atoms: _675  and  _676
REMARK  275  A    between atoms: _679  and  _681
REMARK  276  A    between atoms: _681  and  _682
REMARK  277  A    between atoms: _681  and  _684
REMARK  278  A    between atoms: _684  and  _685
REMARK  279  A    between atoms: _690  and  _691
REMARK                            x       y       z     vdW  Elec       q    Type
REMARK                         _______ _______ _______ _____ _____    ______ ____
ROOT
ATOM      1  O   HOH     1      28.105  27.403  27.712  0.00  0.00    +0.000 OA
ENDROOT
TORSDOF 0
REMARK  Name = ../refined-set-2016/4eky/4eky_pocket.pdb
REMARK  279 active torsions:
REMARK  status: ('A' for Active; 'I' for Inactive)
REMARK    1  A    between atoms: _1  and  _3
REMARK    2  A    between atoms: _3  and  _4
REMARK    3  A    between atoms: _3  and  _6
REMARK    4  A    between atoms: _6  and  _7
REMARK    5  A    between atoms: _12  and  _13
REMARK    6  A    between atoms: _15  and  _17
REMARK    7  A    between atoms: _17  and  _18
REMARK    8  A    between atoms: _17  and  _20
REMARK    9  A    between atoms: _20  and  _21
REMARK   10  A    between atoms: _21  and  _22
REMARK   11  A    between atoms: _25  and  _27
REMARK   12  A    between atoms: _27  and  _28
REMARK   13  A    between atoms: _27  and  _30
REMARK   14  A    between atoms: _30  and  _31
REMARK   15  A    between atoms: _36  and  _37
REMARK   16  A    between atoms: _39  and  _41
REMARK   17  A    between atoms: _41  and  _42
REMARK   18  A    between atoms: _41  and  _44
REMARK   19  A    between atoms: _44  and  _45
REMARK   20  A    between atoms: _50  and  _52
REMARK   21  A    between atoms: _52  and  _53
REMARK   22  A    between atoms: _55  and  _57
REMARK   23  A    between atoms: _57  and  _58
REMARK   24  A    between atoms: _60  and  _62
REMARK   25  A    between atoms: _62  and  _63
REMARK   26  A    between atoms: _62  and  _65
REMARK   27  A    between atoms: _65  and  _66
REMARK   28  A    between atoms: _69  and  _71
REMARK   29  A    between atoms: _71  and  _72
REMARK   30  A    between atoms: _74  and  _76
REMARK   31  A    between atoms: _76  and  _77
REMARK   32  A    between atoms: _76  and  _79
REMARK   33  A    between atoms: _79  and  _80
REMARK   34  A    between atoms: _80  and  _81
REMARK   35  A    between atoms: _81  and  _82
REMARK   36  A    between atoms: _91  and  _93
REMARK   37  A    between atoms: _93  and  _94
REMARK   38  A    between atoms: _93  and  _96
REMARK   39  A    between atoms: _96  and  _97
REMARK   40  A    between atoms: _100  and  _102
REMARK   41  A    between atoms: _102  and  _103
REMARK   42  A    between atoms: _106  and  _108
REMARK   43  A    between atoms: _108  and  _109
REMARK   44  A    between atoms: _108  and  _111
REMARK   45  A    between atoms: _111  and  _112
REMARK   46  A    between atoms: _118  and  _120
REMARK   47  A    between atoms: _120  and  _121
REMARK   48  A    between atoms: _120  and  _123
REMARK   49  A    between atoms: _123  and  _124
REMARK   50  A    between atoms: _129  and  _131
REMARK   51  A    between atoms: _131  and  _132
REMARK   52  A    between atoms: _131  and  _134
REMARK   53  A    between atoms: _134  and  _135
REMARK   54  A    between atoms: _138  and  _140
REMARK   55  A    between atoms: _140  and  _141
REMARK   56  A    between atoms: _140  and  _143
REMARK   57  A    between atoms: _143  and  _144
REMARK   58  A    between atoms: _149  and  _151
REMARK   59  A    between atoms: _151  and  _152
REMARK   60  A    between atoms: _151  and  _154
REMARK   61  A    between atoms: _154  and  _155
REMARK   62  A    between atoms: _161  and  _163
REMARK   63  A    between atoms: _163  and  _164
REMARK   64  A    between atoms: _163  and  _166
REMARK   65  A    between atoms: _166  and  _167
REMARK   66  A    between atoms: _173  and  _175
REMARK   67  A    between atoms: _175  and  _176
REMARK   68  A    between atoms: _175  and  _178
REMARK   69  A    between atoms: _178  and  _179
REMARK   70  A    between atoms: _179  and  _180
REMARK   71  A    between atoms: _180  and  _181
REMARK   72  A    between atoms: _190  and  _192
REMARK   73  A    between atoms: _192  and  _193
REMARK   74  A    between atoms: _192  and  _195
REMARK   75  A    between atoms: _195  and  _196
REMARK   76  A    between atoms: _196  and  _197
REMARK   77  A    between atoms: _200  and  _202
REMARK   78  A    between atoms: _202  and  _203
REMARK   79  A    between atoms: _202  and  _205
REMARK   80  A    between atoms: _205  and  _206
REMARK   81  A    between atoms: _211  and  _213
REMARK   82  A    between atoms: _213  and  _214
REMARK   83  A    between atoms: _213  and  _216
REMARK   84  A    between atoms: _216  and  _217
REMARK   85  A    between atoms: _220  and  _222
REMARK   86  A    between atoms: _222  and  _223
REMARK   87  A    between atoms: _222  and  _225
REMARK   88  A    between atoms: _225  and  _226
REMARK   89  A    between atoms: _229  and  _231
REMARK   90  A    between atoms: _231  and  _232
REMARK   91  A    between atoms: _231  and  _234
REMARK   92  A    between atoms: _234  and  _235
REMARK   93  A    between atoms: _241  and  _242
REMARK   94  A    between atoms: _247  and  _249
REMARK   95  A    between atoms: _249  and  _250
REMARK   96  A    between atoms: _249  and  _252
REMARK   97  A    between atoms: _252  and  _253
REMARK   98  A    between atoms: _258  and  _259
REMARK   99  A    between atoms: _261  and  _263
REMARK  100  A    between atoms: _263  and  _264
REMARK  101  A    between atoms: _263  and  _266
REMARK  102  A    between atoms: _266  and  _267
REMARK  103  A    between atoms: _270  and  _272
REMARK  104  A    between atoms: _272  and  _273
REMARK  105  A    between atoms: _272  and  _275
REMARK  106  A    between atoms: _275  and  _276
REMARK  107  A    between atoms: _281  and  _283
REMARK  108  A    between atoms: _283  and  _284
REMARK  109  A    between atoms: _283  and  _286
REMARK  110  A    between atoms: _286  and  _287
REMARK  111  A    between atoms: _292  and  _294
REMARK  112  A    between atoms: _294  and  _295
REMARK  113  A    between atoms: _294  and  _297
REMARK  114  A    between atoms: _297  and  _298
REMARK  115  A    between atoms: _301  and  _303
REMARK  116  A    between atoms: _303  and  _304
REMARK  117  A    between atoms: _303  and  _306
REMARK  118  A    between atoms: _309  and  _311
REMARK  119  A    between atoms: _311  and  _312
REMARK  120  A    between atoms: _311  and  _314
REMARK  121  A    between atoms: _314  and  _315
REMARK  122  A    between atoms: _319  and  _320
REMARK  123  A    between atoms: _325  and  _327
REMARK  124  A    between atoms: _327  and  _328
REMARK  125  A    between atoms: _327  and  _330
REMARK  126  A    between atoms: _330  and  _331
REMARK  127  A    between atoms: _331  and  _332
REMARK  128  A    between atoms: _335  and  _337
REMARK  129  A    between atoms: _337  and  _338
REMARK  130  A    between atoms: _341  and  _343
REMARK  131  A    between atoms: _343  and  _344
REMARK  132  A    between atoms: _343  and  _346
REMARK  133  A    between atoms: _346  and  _347
REMARK  134  A    between atoms: _350  and  _352
REMARK  135  A    between atoms: _352  and  _353
REMARK  136  A    between atoms: _352  and  _355
REMARK  137  A    between atoms: _355  and  _356
REMARK  138  A    between atoms: _356  and  _357
REMARK  139  A    between atoms: _360  and  _362
REMARK  140  A    between atoms: _362  and  _363
REMARK  141  A    between atoms: _362  and  _365
REMARK  142  A    between atoms: _365  and  _366
REMARK  143  A    between atoms: _366  and  _367
REMARK  144  A    between atoms: _369  and  _371
REMARK  145  A    between atoms: _371  and  _372
REMARK  146  A    between atoms: _375  and  _377
REMARK  147  A    between atoms: _377  and  _378
REMARK  148  A    between atoms: _377  and  _380
REMARK  149  A    between atoms: _380  and  _381
REMARK  150  A    between atoms: _386  and  _388
REMARK  151  A    between atoms: _388  and  _389
REMARK  152  A    between atoms: _391  and  _393
REMARK  153  A    between atoms: _393  and  _394
REMARK  154  A    between atoms: _393  and  _396
REMARK  155  A    between atoms: _399  and  _401
REMARK  156  A    between atoms: _401  and  _402
REMARK  157  A    between atoms: _405  and  _407
REMARK  158  A    between atoms: _407  and  _408
REMARK  159  A    between atoms: _407  and  _410
REMARK  160  A    between atoms: _410  and  _411
REMARK  161  A    between atoms: _416  and  _418
REMARK  162  A    between atoms: _418  and  _419
REMARK  163  A    between atoms: _418  and  _421
REMARK  164  A    between atoms: _421  and  _422
REMARK  165  A    between atoms: _428  and  _430
REMARK  166  A    between atoms: _430  and  _431
REMARK  167  A    between atoms: _430  and  _433
REMARK  168  A    between atoms: _433  and  _434
REMARK  169  A    between atoms: _434  and  _435
REMARK  170  A    between atoms: _435  and  _436
REMARK  171  A    between atoms: _436  and  _437
REMARK  172  A    between atoms: _441  and  _443
REMARK  173  A    between atoms: _443  and  _444
REMARK  174  A    between atoms: _443  and  _446
REMARK  175  A    between atoms: _446  and  _447
REMARK  176  A    between atoms: _450  and  _452
REMARK  177  A    between atoms: _452  and  _453
REMARK  178  A    between atoms: _452  and  _455
REMARK  179  A    between atoms: _455  and  _456
REMARK  180  A    between atoms: _461  and  _463
REMARK  181  A    between atoms: _463  and  _464
REMARK  182  A    between atoms: _466  and  _468
REMARK  183  A    between atoms: _468  and  _469
REMARK  184  A    between atoms: _468  and  _471
REMARK  185  A    between atoms: _471  and  _472
REMARK  186  A    between atoms: _475  and  _477
REMARK  187  A    between atoms: _477  and  _478
REMARK  188  A    between atoms: _477  and  _480
REMARK  189  A    between atoms: _480  and  _481
REMARK  190  A    between atoms: _481  and  _482
REMARK  191  A    between atoms: _482  and  _483
REMARK  192  A    between atoms: _483  and  _484
REMARK  193  A    between atoms: _488  and  _490
REMARK  194  A    between atoms: _490  and  _491
REMARK  195  A    between atoms: _490  and  _493
REMARK  196  A    between atoms: _493  and  _494
REMARK  197  A    between atoms: _494  and  _495
REMARK  198  A    between atoms: _495  and  _496
REMARK  199  A    between atoms: _505  and  _507
REMARK  200  A    between atoms: _507  and  _508
REMARK  201  A    between atoms: _507  and  _510
REMARK  202  A    between atoms: _510  and  _511
REMARK  203  A    between atoms: _516  and  _518
REMARK  204  A    between atoms: _518  and  _519
REMARK  205  A    between atoms: _518  and  _521
REMARK  206  A    between atoms: _521  and  _522
REMARK  207  A    between atoms: _527  and  _528
REMARK  208  A    between atoms: _530  and  _532
REMARK  209  A    between atoms: _532  and  _533
REMARK  210  A    between atoms: _532  and  _535
REMARK  211  A    between atoms: _535  and  _536
REMARK  212  A    between atoms: _536  and  _537
REMARK  213  A    between atoms: _537  and  _538
REMARK  214  A    between atoms: _538  and  _539
REMARK  215  A    between atoms: _543  and  _545
REMARK  216  A    between atoms: _545  and  _546
REMARK  217  A    between atoms: _545  and  _548
REMARK  218  A    between atoms: _548  and  _549
REMARK  219  A    between atoms: _551  and  _553
REMARK  220  A    between atoms: _553  and  _554
REMARK  221  A    between atoms: _553  and  _556
REMARK  222  A    between atoms: _556  and  _557
REMARK  223  A    between atoms: _560  and  _562
REMARK  224  A    between atoms: _562  and  _563
REMARK  225  A    between atoms: _562  and  _565
REMARK  226  A    between atoms: _565  and  _566
REMARK  227  A    between atoms: _566  and  _567
REMARK  228  A    between atoms: _570  and  _572
REMARK  229  A    between atoms: _572  and  _573
REMARK  230  A    between atoms: _576  and  _578
REMARK  231  A    between atoms: _578  and  _579
REMARK  232  A    between atoms: _578  and  _581
REMARK  233  A    between atoms: _581  and  _582
REMARK  234  A    between atoms: _584  and  _586
REMARK  235  A    between atoms: _586  and  _587
REMARK  236  A    between atoms: _589  and  _591
REMARK  237  A    between atoms: _591  and  _592
REMARK  238  A    between atoms: _591  and  _594
REMARK  239  A    between atoms: _594  and  _595
REMARK  240  A    between atoms: _598  and  _600
REMARK  241  A    between atoms: _600  and  _601
REMARK  242  A    between atoms: _603  and  _605
REMARK  243  A    between atoms: _605  and  _606
REMARK  244  A    between atoms: _605  and  _608
REMARK  245  A    between atoms: _608  and  _609
REMARK  246  A    between atoms: _614  and  _616
REMARK  247  A    between atoms: _616  and  _617
REMARK  248  A    between atoms: _616  and  _619
REMARK  249  A    between atoms: _619  and  _620
REMARK  250  A    between atoms: _620  and  _621
REMARK  251  A    between atoms: _628  and  _629
REMARK  252  A    between atoms: _629  and  _645
REMARK  253  A    between atoms: _630  and  _632
REMARK  254  A    between atoms: _632  and  _633
REMARK  255  A    between atoms: _633  and  _634
REMARK  256  A    between atoms: _638  and  _640
REMARK  257  A    between atoms: _640  and  _641
REMARK  258  A    between atoms: _640  and  _648
REMARK  259  A    between atoms: _641  and  _642
REMARK  260  A    between atoms: _642  and  _643
REMARK  261  A    between atoms: _643  and  _644
REMARK  262  A    between atoms: _644  and  _645
REMARK  263  A    between atoms: _650  and  _652
REMARK  264  A    between atoms: _652  and  _653
REMARK  265  A    between atoms: _652  and  _655
REMARK  266  A    between atoms: _655  and  _656
REMARK  267  A    between atoms: _659  and  _661
REMARK  268  A    between atoms: _661  and  _662
REMARK  269  A    between atoms: _664  and  _666
REMARK  270  A    between atoms: _666  and  _667
REMARK  271  A    between atoms: _670  and  _672
REMARK  272  A    between atoms: _672  and  _673
REMARK  273  A    between atoms: _672  and  _675
REMARK  274  A    between atoms: _675  and  _676
REMARK  275  A    between atoms: _679  and  _681
REMARK  276  A    between atoms: _681  and  _682
REMARK  277  A    between atoms: _681  and  _684
REMARK  278  A    between atoms: _684  and  _685
REMARK  279  A    between atoms: _690  and  _691
REMARK                            x       y       z     vdW  Elec       q    Type
REMARK                         _______ _______ _______ _____ _____    ______ ____
ROOT
ATOM      1  O   HOH     1      27.065  23.213  21.695  0.00  0.00    +0.000 OA
ENDROOT
TORSDOF 0
REMARK  Name = ../refined-set-2016/4eky/4eky_pocket.pdb
REMARK  279 active torsions:
REMARK  status: ('A' for Active; 'I' for Inactive)
REMARK    1  A    between atoms: _1  and  _3
REMARK    2  A    between atoms: _3  and  _4
REMARK    3  A    between atoms: _3  and  _6
REMARK    4  A    between atoms: _6  and  _7
REMARK    5  A    between atoms: _12  and  _13
REMARK    6  A    between atoms: _15  and  _17
REMARK    7  A    between atoms: _17  and  _18
REMARK    8  A    between atoms: _17  and  _20
REMARK    9  A    between atoms: _20  and  _21
REMARK   10  A    between atoms: _21  and  _22
REMARK   11  A    between atoms: _25  and  _27
REMARK   12  A    between atoms: _27  and  _28
REMARK   13  A    between atoms: _27  and  _30
REMARK   14  A    between atoms: _30  and  _31
REMARK   15  A    between atoms: _36  and  _37
REMARK   16  A    between atoms: _39  and  _41
REMARK   17  A    between atoms: _41  and  _42
REMARK   18  A    between atoms: _41  and  _44
REMARK   19  A    between atoms: _44  and  _45
REMARK   20  A    between atoms: _50  and  _52
REMARK   21  A    between atoms: _52  and  _53
REMARK   22  A    between atoms: _55  and  _57
REMARK   23  A    between atoms: _57  and  _58
REMARK   24  A    between atoms: _60  and  _62
REMARK   25  A    between atoms: _62  and  _63
REMARK   26  A    between atoms: _62  and  _65
REMARK   27  A    between atoms: _65  and  _66
REMARK   28  A    between atoms: _69  and  _71
REMARK   29  A    between atoms: _71  and  _72
REMARK   30  A    between atoms: _74  and  _76
REMARK   31  A    between atoms: _76  and  _77
REMARK   32  A    between atoms: _76  and  _79
REMARK   33  A    between atoms: _79  and  _80
REMARK   34  A    between atoms: _80  and  _81
REMARK   35  A    between atoms: _81  and  _82
REMARK   36  A    between atoms: _91  and  _93
REMARK   37  A    between atoms: _93  and  _94
REMARK   38  A    between atoms: _93  and  _96
REMARK   39  A    between atoms: _96  and  _97
REMARK   40  A    between atoms: _100  and  _102
REMARK   41  A    between atoms: _102  and  _103
REMARK   42  A    between atoms: _106  and  _108
REMARK   43  A    between atoms: _108  and  _109
REMARK   44  A    between atoms: _108  and  _111
REMARK   45  A    between atoms: _111  and  _112
REMARK   46  A    between atoms: _118  and  _120
REMARK   47  A    between atoms: _120  and  _121
REMARK   48  A    between atoms: _120  and  _123
REMARK   49  A    between atoms: _123  and  _124
REMARK   50  A    between atoms: _129  and  _131
REMARK   51  A    between atoms: _131  and  _132
REMARK   52  A    between atoms: _131  and  _134
REMARK   53  A    between atoms: _134  and  _135
REMARK   54  A    between atoms: _138  and  _140
REMARK   55  A    between atoms: _140  and  _141
REMARK   56  A    between atoms: _140  and  _143
REMARK   57  A    between atoms: _143  and  _144
REMARK   58  A    between atoms: _149  and  _151
REMARK   59  A    between atoms: _151  and  _152
REMARK   60  A    between atoms: _151  and  _154
REMARK   61  A    between atoms: _154  and  _155
REMARK   62  A    between atoms: _161  and  _163
REMARK   63  A    between atoms: _163  and  _164
REMARK   64  A    between atoms: _163  and  _166
REMARK   65  A    between atoms: _166  and  _167
REMARK   66  A    between atoms: _173  and  _175
REMARK   67  A    between atoms: _175  and  _176
REMARK   68  A    between atoms: _175  and  _178
REMARK   69  A    between atoms: _178  and  _179
REMARK   70  A    between atoms: _179  and  _180
REMARK   71  A    between atoms: _180  and  _181
REMARK   72  A    between atoms: _190  and  _192
REMARK   73  A    between atoms: _192  and  _193
REMARK   74  A    between atoms: _192  and  _195
REMARK   75  A    between atoms: _195  and  _196
REMARK   76  A    between atoms: _196  and  _197
REMARK   77  A    between atoms: _200  and  _202
REMARK   78  A    between atoms: _202  and  _203
REMARK   79  A    between atoms: _202  and  _205
REMARK   80  A    between atoms: _205  and  _206
REMARK   81  A    between atoms: _211  and  _213
REMARK   82  A    between atoms: _213  and  _214
REMARK   83  A    between atoms: _213  and  _216
REMARK   84  A    between atoms: _216  and  _217
REMARK   85  A    between atoms: _220  and  _222
REMARK   86  A    between atoms: _222  and  _223
REMARK   87  A    between atoms: _222  and  _225
REMARK   88  A    between atoms: _225  and  _226
REMARK   89  A    between atoms: _229  and  _231
REMARK   90  A    between atoms: _231  and  _232
REMARK   91  A    between atoms: _231  and  _234
REMARK   92  A    between atoms: _234  and  _235
REMARK   93  A    between atoms: _241  and  _242
REMARK   94  A    between atoms: _247  and  _249
REMARK   95  A    between atoms: _249  and  _250
REMARK   96  A    between atoms: _249  and  _252
REMARK   97  A    between atoms: _252  and  _253
REMARK   98  A    between atoms: _258  and  _259
REMARK   99  A    between atoms: _261  and  _263
REMARK  100  A    between atoms: _263  and  _264
REMARK  101  A    between atoms: _263  and  _266
REMARK  102  A    between atoms: _266  and  _267
REMARK  103  A    between atoms: _270  and  _272
REMARK  104  A    between atoms: _272  and  _273
REMARK  105  A    between atoms: _272  and  _275
REMARK  106  A    between atoms: _275  and  _276
REMARK  107  A    between atoms: _281  and  _283
REMARK  108  A    between atoms: _283  and  _284
REMARK  109  A    between atoms: _283  and  _286
REMARK  110  A    between atoms: _286  and  _287
REMARK  111  A    between atoms: _292  and  _294
REMARK  112  A    between atoms: _294  and  _295
REMARK  113  A    between atoms: _294  and  _297
REMARK  114  A    between atoms: _297  and  _298
REMARK  115  A    between atoms: _301  and  _303
REMARK  116  A    between atoms: _303  and  _304
REMARK  117  A    between atoms: _303  and  _306
REMARK  118  A    between atoms: _309  and  _311
REMARK  119  A    between atoms: _311  and  _312
REMARK  120  A    between atoms: _311  and  _314
REMARK  121  A    between atoms: _314  and  _315
REMARK  122  A    between atoms: _319  and  _320
REMARK  123  A    between atoms: _325  and  _327
REMARK  124  A    between atoms: _327  and  _328
REMARK  125  A    between atoms: _327  and  _330
REMARK  126  A    between atoms: _330  and  _331
REMARK  127  A    between atoms: _331  and  _332
REMARK  128  A    between atoms: _335  and  _337
REMARK  129  A    between atoms: _337  and  _338
REMARK  130  A    between atoms: _341  and  _343
REMARK  131  A    between atoms: _343  and  _344
REMARK  132  A    between atoms: _343  and  _346
REMARK  133  A    between atoms: _346  and  _347
REMARK  134  A    between atoms: _350  and  _352
REMARK  135  A    between atoms: _352  and  _353
REMARK  136  A    between atoms: _352  and  _355
REMARK  137  A    between atoms: _355  and  _356
REMARK  138  A    between atoms: _356  and  _357
REMARK  139  A    between atoms: _360  and  _362
REMARK  140  A    between atoms: _362  and  _363
REMARK  141  A    between atoms: _362  and  _365
REMARK  142  A    between atoms: _365  and  _366
REMARK  143  A    between atoms: _366  and  _367
REMARK  144  A    between atoms: _369  and  _371
REMARK  145  A    between atoms: _371  and  _372
REMARK  146  A    between atoms: _375  and  _377
REMARK  147  A    between atoms: _377  and  _378
REMARK  148  A    between atoms: _377  and  _380
REMARK  149  A    between atoms: _380  and  _381
REMARK  150  A    between atoms: _386  and  _388
REMARK  151  A    between atoms: _388  and  _389
REMARK  152  A    between atoms: _391  and  _393
REMARK  153  A    between atoms: _393  and  _394
REMARK  154  A    between atoms: _393  and  _396
REMARK  155  A    between atoms: _399  and  _401
REMARK  156  A    between atoms: _401  and  _402
REMARK  157  A    between atoms: _405  and  _407
REMARK  158  A    between atoms: _407  and  _408
REMARK  159  A    between atoms: _407  and  _410
REMARK  160  A    between atoms: _410  and  _411
REMARK  161  A    between atoms: _416  and  _418
REMARK  162  A    between atoms: _418  and  _419
REMARK  163  A    between atoms: _418  and  _421
REMARK  164  A    between atoms: _421  and  _422
REMARK  165  A    between atoms: _428  and  _430
REMARK  166  A    between atoms: _430  and  _431
REMARK  167  A    between atoms: _430  and  _433
REMARK  168  A    between atoms: _433  and  _434
REMARK  169  A    between atoms: _434  and  _435
REMARK  170  A    between atoms: _435  and  _436
REMARK  171  A    between atoms: _436  and  _437
REMARK  172  A    between atoms: _441  and  _443
REMARK  173  A    between atoms: _443  and  _444
REMARK  174  A    between atoms: _443  and  _446
REMARK  175  A    between atoms: _446  and  _447
REMARK  176  A    between atoms: _450  and  _452
REMARK  177  A    between atoms: _452  and  _453
REMARK  178  A    between atoms: _452  and  _455
REMARK  179  A    between atoms: _455  and  _456
REMARK  180  A    between atoms: _461  and  _463
REMARK  181  A    between atoms: _463  and  _464
REMARK  182  A    between atoms: _466  and  _468
REMARK  183  A    between atoms: _468  and  _469
REMARK  184  A    between atoms: _468  and  _471
REMARK  185  A    between atoms: _471  and  _472
REMARK  186  A    between atoms: _475  and  _477
REMARK  187  A    between atoms: _477  and  _478
REMARK  188  A    between atoms: _477  and  _480
REMARK  189  A    between atoms: _480  and  _481
REMARK  190  A    between atoms: _481  and  _482
REMARK  191  A    between atoms: _482  and  _483
REMARK  192  A    between atoms: _483  and  _484
REMARK  193  A    between atoms: _488  and  _490
REMARK  194  A    between atoms: _490  and  _491
REMARK  195  A    between atoms: _490  and  _493
REMARK  196  A    between atoms: _493  and  _494
REMARK  197  A    between atoms: _494  and  _495
REMARK  198  A    between atoms: _495  and  _496
REMARK  199  A    between atoms: _505  and  _507
REMARK  200  A    between atoms: _507  and  _508
REMARK  201  A    between atoms: _507  and  _510
REMARK  202  A    between atoms: _510  and  _511
REMARK  203  A    between atoms: _516  and  _518
REMARK  204  A    between atoms: _518  and  _519
REMARK  205  A    between atoms: _518  and  _521
REMARK  206  A    between atoms: _521  and  _522
REMARK  207  A    between atoms: _527  and  _528
REMARK  208  A    between atoms: _530  and  _532
REMARK  209  A    between atoms: _532  and  _533
REMARK  210  A    between atoms: _532  and  _535
REMARK  211  A    between atoms: _535  and  _536
REMARK  212  A    between atoms: _536  and  _537
REMARK  213  A    between atoms: _537  and  _538
REMARK  214  A    between atoms: _538  and  _539
REMARK  215  A    between atoms: _543  and  _545
REMARK  216  A    between atoms: _545  and  _546
REMARK  217  A    between atoms: _545  and  _548
REMARK  218  A    between atoms: _548  and  _549
REMARK  219  A    between atoms: _551  and  _553
REMARK  220  A    between atoms: _553  and  _554
REMARK  221  A    between atoms: _553  and  _556
REMARK  222  A    between atoms: _556  and  _557
REMARK  223  A    between atoms: _560  and  _562
REMARK  224  A    between atoms: _562  and  _563
REMARK  225  A    between atoms: _562  and  _565
REMARK  226  A    between atoms: _565  and  _566
REMARK  227  A    between atoms: _566  and  _567
REMARK  228  A    between atoms: _570  and  _572
REMARK  229  A    between atoms: _572  and  _573
REMARK  230  A    between atoms: _576  and  _578
REMARK  231  A    between atoms: _578  and  _579
REMARK  232  A    between atoms: _578  and  _581
REMARK  233  A    between atoms: _581  and  _582
REMARK  234  A    between atoms: _584  and  _586
REMARK  235  A    between atoms: _586  and  _587
REMARK  236  A    between atoms: _589  and  _591
REMARK  237  A    between atoms: _591  and  _592
REMARK  238  A    between atoms: _591  and  _594
REMARK  239  A    between atoms: _594  and  _595
REMARK  240  A    between atoms: _598  and  _600
REMARK  241  A    between atoms: _600  and  _601
REMARK  242  A    between atoms: _603  and  _605
REMARK  243  A    between atoms: _605  and  _606
REMARK  244  A    between atoms: _605  and  _608
REMARK  245  A    between atoms: _608  and  _609
REMARK  246  A    between atoms: _614  and  _616
REMARK  247  A    between atoms: _616  and  _617
REMARK  248  A    between atoms: _616  and  _619
REMARK  249  A    between atoms: _619  and  _620
REMARK  250  A    between atoms: _620  and  _621
REMARK  251  A    between atoms: _628  and  _629
REMARK  252  A    between atoms: _629  and  _645
REMARK  253  A    between atoms: _630  and  _632
REMARK  254  A    between atoms: _632  and  _633
REMARK  255  A    between atoms: _633  and  _634
REMARK  256  A    between atoms: _638  and  _640
REMARK  257  A    between atoms: _640  and  _641
REMARK  258  A    between atoms: _640  and  _648
REMARK  259  A    between atoms: _641  and  _642
REMARK  260  A    between atoms: _642  and  _643
REMARK  261  A    between atoms: _643  and  _644
REMARK  262  A    between atoms: _644  and  _645
REMARK  263  A    between atoms: _650  and  _652
REMARK  264  A    between atoms: _652  and  _653
REMARK  265  A    between atoms: _652  and  _655
REMARK  266  A    between atoms: _655  and  _656
REMARK  267  A    between atoms: _659  and  _661
REMARK  268  A    between atoms: _661  and  _662
REMARK  269  A    between atoms: _664  and  _666
REMARK  270  A    between atoms: _666  and  _667
REMARK  271  A    between atoms: _670  and  _672
REMARK  272  A    between atoms: _672  and  _673
REMARK  273  A    between atoms: _672  and  _675
REMARK  274  A    between atoms: _675  and  _676
REMARK  275  A    between atoms: _679  and  _681
REMARK  276  A    between atoms: _681  and  _682
REMARK  277  A    between atoms: _681  and  _684
REMARK  278  A    between atoms: _684  and  _685
REMARK  279  A    between atoms: _690  and  _691
REMARK                            x       y       z     vdW  Elec       q    Type
REMARK                         _______ _______ _______ _____ _____    ______ ____
ROOT
ATOM      1  O   HOH     1      35.145  13.350  31.309  0.00  0.00    +0.000 OA
ENDROOT
TORSDOF 0
REMARK  Name = ../refined-set-2016/4eky/4eky_pocket.pdb
REMARK  279 active torsions:
REMARK  status: ('A' for Active; 'I' for Inactive)
REMARK    1  A    between atoms: _1  and  _3
REMARK    2  A    between atoms: _3  and  _4
REMARK    3  A    between atoms: _3  and  _6
REMARK    4  A    between atoms: _6  and  _7
REMARK    5  A    between atoms: _12  and  _13
REMARK    6  A    between atoms: _15  and  _17
REMARK    7  A    between atoms: _17  and  _18
REMARK    8  A    between atoms: _17  and  _20
REMARK    9  A    between atoms: _20  and  _21
REMARK   10  A    between atoms: _21  and  _22
REMARK   11  A    between atoms: _25  and  _27
REMARK   12  A    between atoms: _27  and  _28
REMARK   13  A    between atoms: _27  and  _30
REMARK   14  A    between atoms: _30  and  _31
REMARK   15  A    between atoms: _36  and  _37
REMARK   16  A    between atoms: _39  and  _41
REMARK   17  A    between atoms: _41  and  _42
REMARK   18  A    between atoms: _41  and  _44
REMARK   19  A    between atoms: _44  and  _45
REMARK   20  A    between atoms: _50  and  _52
REMARK   21  A    between atoms: _52  and  _53
REMARK   22  A    between atoms: _55  and  _57
REMARK   23  A    between atoms: _57  and  _58
REMARK   24  A    between atoms: _60  and  _62
REMARK   25  A    between atoms: _62  and  _63
REMARK   26  A    between atoms: _62  and  _65
REMARK   27  A    between atoms: _65  and  _66
REMARK   28  A    between atoms: _69  and  _71
REMARK   29  A    between atoms: _71  and  _72
REMARK   30  A    between atoms: _74  and  _76
REMARK   31  A    between atoms: _76  and  _77
REMARK   32  A    between atoms: _76  and  _79
REMARK   33  A    between atoms: _79  and  _80
REMARK   34  A    between atoms: _80  and  _81
REMARK   35  A    between atoms: _81  and  _82
REMARK   36  A    between atoms: _91  and  _93
REMARK   37  A    between atoms: _93  and  _94
REMARK   38  A    between atoms: _93  and  _96
REMARK   39  A    between atoms: _96  and  _97
REMARK   40  A    between atoms: _100  and  _102
REMARK   41  A    between atoms: _102  and  _103
REMARK   42  A    between atoms: _106  and  _108
REMARK   43  A    between atoms: _108  and  _109
REMARK   44  A    between atoms: _108  and  _111
REMARK   45  A    between atoms: _111  and  _112
REMARK   46  A    between atoms: _118  and  _120
REMARK   47  A    between atoms: _120  and  _121
REMARK   48  A    between atoms: _120  and  _123
REMARK   49  A    between atoms: _123  and  _124
REMARK   50  A    between atoms: _129  and  _131
REMARK   51  A    between atoms: _131  and  _132
REMARK   52  A    between atoms: _131  and  _134
REMARK   53  A    between atoms: _134  and  _135
REMARK   54  A    between atoms: _138  and  _140
REMARK   55  A    between atoms: _140  and  _141
REMARK   56  A    between atoms: _140  and  _143
REMARK   57  A    between atoms: _143  and  _144
REMARK   58  A    between atoms: _149  and  _151
REMARK   59  A    between atoms: _151  and  _152
REMARK   60  A    between atoms: _151  and  _154
REMARK   61  A    between atoms: _154  and  _155
REMARK   62  A    between atoms: _161  and  _163
REMARK   63  A    between atoms: _163  and  _164
REMARK   64  A    between atoms: _163  and  _166
REMARK   65  A    between atoms: _166  and  _167
REMARK   66  A    between atoms: _173  and  _175
REMARK   67  A    between atoms: _175  and  _176
REMARK   68  A    between atoms: _175  and  _178
REMARK   69  A    between atoms: _178  and  _179
REMARK   70  A    between atoms: _179  and  _180
REMARK   71  A    between atoms: _180  and  _181
REMARK   72  A    between atoms: _190  and  _192
REMARK   73  A    between atoms: _192  and  _193
REMARK   74  A    between atoms: _192  and  _195
REMARK   75  A    between atoms: _195  and  _196
REMARK   76  A    between atoms: _196  and  _197
REMARK   77  A    between atoms: _200  and  _202
REMARK   78  A    between atoms: _202  and  _203
REMARK   79  A    between atoms: _202  and  _205
REMARK   80  A    between atoms: _205  and  _206
REMARK   81  A    between atoms: _211  and  _213
REMARK   82  A    between atoms: _213  and  _214
REMARK   83  A    between atoms: _213  and  _216
REMARK   84  A    between atoms: _216  and  _217
REMARK   85  A    between atoms: _220  and  _222
REMARK   86  A    between atoms: _222  and  _223
REMARK   87  A    between atoms: _222  and  _225
REMARK   88  A    between atoms: _225  and  _226
REMARK   89  A    between atoms: _229  and  _231
REMARK   90  A    between atoms: _231  and  _232
REMARK   91  A    between atoms: _231  and  _234
REMARK   92  A    between atoms: _234  and  _235
REMARK   93  A    between atoms: _241  and  _242
REMARK   94  A    between atoms: _247  and  _249
REMARK   95  A    between atoms: _249  and  _250
REMARK   96  A    between atoms: _249  and  _252
REMARK   97  A    between atoms: _252  and  _253
REMARK   98  A    between atoms: _258  and  _259
REMARK   99  A    between atoms: _261  and  _263
REMARK  100  A    between atoms: _263  and  _264
REMARK  101  A    between atoms: _263  and  _266
REMARK  102  A    between atoms: _266  and  _267
REMARK  103  A    between atoms: _270  and  _272
REMARK  104  A    between atoms: _272  and  _273
REMARK  105  A    between atoms: _272  and  _275
REMARK  106  A    between atoms: _275  and  _276
REMARK  107  A    between atoms: _281  and  _283
REMARK  108  A    between atoms: _283  and  _284
REMARK  109  A    between atoms: _283  and  _286
REMARK  110  A    between atoms: _286  and  _287
REMARK  111  A    between atoms: _292  and  _294
REMARK  112  A    between atoms: _294  and  _295
REMARK  113  A    between atoms: _294  and  _297
REMARK  114  A    between atoms: _297  and  _298
REMARK  115  A    between atoms: _301  and  _303
REMARK  116  A    between atoms: _303  and  _304
REMARK  117  A    between atoms: _303  and  _306
REMARK  118  A    between atoms: _309  and  _311
REMARK  119  A    between atoms: _311  and  _312
REMARK  120  A    between atoms: _311  and  _314
REMARK  121  A    between atoms: _314  and  _315
REMARK  122  A    between atoms: _319  and  _320
REMARK  123  A    between atoms: _325  and  _327
REMARK  124  A    between atoms: _327  and  _328
REMARK  125  A    between atoms: _327  and  _330
REMARK  126  A    between atoms: _330  and  _331
REMARK  127  A    between atoms: _331  and  _332
REMARK  128  A    between atoms: _335  and  _337
REMARK  129  A    between atoms: _337  and  _338
REMARK  130  A    between atoms: _341  and  _343
REMARK  131  A    between atoms: _343  and  _344
REMARK  132  A    between atoms: _343  and  _346
REMARK  133  A    between atoms: _346  and  _347
REMARK  134  A    between atoms: _350  and  _352
REMARK  135  A    between atoms: _352  and  _353
REMARK  136  A    between atoms: _352  and  _355
REMARK  137  A    between atoms: _355  and  _356
REMARK  138  A    between atoms: _356  and  _357
REMARK  139  A    between atoms: _360  and  _362
REMARK  140  A    between atoms: _362  and  _363
REMARK  141  A    between atoms: _362  and  _365
REMARK  142  A    between atoms: _365  and  _366
REMARK  143  A    between atoms: _366  and  _367
REMARK  144  A    between atoms: _369  and  _371
REMARK  145  A    between atoms: _371  and  _372
REMARK  146  A    between atoms: _375  and  _377
REMARK  147  A    between atoms: _377  and  _378
REMARK  148  A    between atoms: _377  and  _380
REMARK  149  A    between atoms: _380  and  _381
REMARK  150  A    between atoms: _386  and  _388
REMARK  151  A    between atoms: _388  and  _389
REMARK  152  A    between atoms: _391  and  _393
REMARK  153  A    between atoms: _393  and  _394
REMARK  154  A    between atoms: _393  and  _396
REMARK  155  A    between atoms: _399  and  _401
REMARK  156  A    between atoms: _401  and  _402
REMARK  157  A    between atoms: _405  and  _407
REMARK  158  A    between atoms: _407  and  _408
REMARK  159  A    between atoms: _407  and  _410
REMARK  160  A    between atoms: _410  and  _411
REMARK  161  A    between atoms: _416  and  _418
REMARK  162  A    between atoms: _418  and  _419
REMARK  163  A    between atoms: _418  and  _421
REMARK  164  A    between atoms: _421  and  _422
REMARK  165  A    between atoms: _428  and  _430
REMARK  166  A    between atoms: _430  and  _431
REMARK  167  A    between atoms: _430  and  _433
REMARK  168  A    between atoms: _433  and  _434
REMARK  169  A    between atoms: _434  and  _435
REMARK  170  A    between atoms: _435  and  _436
REMARK  171  A    between atoms: _436  and  _437
REMARK  172  A    between atoms: _441  and  _443
REMARK  173  A    between atoms: _443  and  _444
REMARK  174  A    between atoms: _443  and  _446
REMARK  175  A    between atoms: _446  and  _447
REMARK  176  A    between atoms: _450  and  _452
REMARK  177  A    between atoms: _452  and  _453
REMARK  178  A    between atoms: _452  and  _455
REMARK  179  A    between atoms: _455  and  _456
REMARK  180  A    between atoms: _461  and  _463
REMARK  181  A    between atoms: _463  and  _464
REMARK  182  A    between atoms: _466  and  _468
REMARK  183  A    between atoms: _468  and  _469
REMARK  184  A    between atoms: _468  and  _471
REMARK  185  A    between atoms: _471  and  _472
REMARK  186  A    between atoms: _475  and  _477
REMARK  187  A    between atoms: _477  and  _478
REMARK  188  A    between atoms: _477  and  _480
REMARK  189  A    between atoms: _480  and  _481
REMARK  190  A    between atoms: _481  and  _482
REMARK  191  A    between atoms: _482  and  _483
REMARK  192  A    between atoms: _483  and  _484
REMARK  193  A    between atoms: _488  and  _490
REMARK  194  A    between atoms: _490  and  _491
REMARK  195  A    between atoms: _490  and  _493
REMARK  196  A    between atoms: _493  and  _494
REMARK  197  A    between atoms: _494  and  _495
REMARK  198  A    between atoms: _495  and  _496
REMARK  199  A    between atoms: _505  and  _507
REMARK  200  A    between atoms: _507  and  _508
REMARK  201  A    between atoms: _507  and  _510
REMARK  202  A    between atoms: _510  and  _511
REMARK  203  A    between atoms: _516  and  _518
REMARK  204  A    between atoms: _518  and  _519
REMARK  205  A    between atoms: _518  and  _521
REMARK  206  A    between atoms: _521  and  _522
REMARK  207  A    between atoms: _527  and  _528
REMARK  208  A    between atoms: _530  and  _532
REMARK  209  A    between atoms: _532  and  _533
REMARK  210  A    between atoms: _532  and  _535
REMARK  211  A    between atoms: _535  and  _536
REMARK  212  A    between atoms: _536  and  _537
REMARK  213  A    between atoms: _537  and  _538
REMARK  214  A    between atoms: _538  and  _539
REMARK  215  A    between atoms: _543  and  _545
REMARK  216  A    between atoms: _545  and  _546
REMARK  217  A    between atoms: _545  and  _548
REMARK  218  A    between atoms: _548  and  _549
REMARK  219  A    between atoms: _551  and  _553
REMARK  220  A    between atoms: _553  and  _554
REMARK  221  A    between atoms: _553  and  _556
REMARK  222  A    between atoms: _556  and  _557
REMARK  223  A    between atoms: _560  and  _562
REMARK  224  A    between atoms: _562  and  _563
REMARK  225  A    between atoms: _562  and  _565
REMARK  226  A    between atoms: _565  and  _566
REMARK  227  A    between atoms: _566  and  _567
REMARK  228  A    between atoms: _570  and  _572
REMARK  229  A    between atoms: _572  and  _573
REMARK  230  A    between atoms: _576  and  _578
REMARK  231  A    between atoms: _578  and  _579
REMARK  232  A    between atoms: _578  and  _581
REMARK  233  A    between atoms: _581  and  _582
REMARK  234  A    between atoms: _584  and  _586
REMARK  235  A    between atoms: _586  and  _587
REMARK  236  A    between atoms: _589  and  _591
REMARK  237  A    between atoms: _591  and  _592
REMARK  238  A    between atoms: _591  and  _594
REMARK  239  A    between atoms: _594  and  _595
REMARK  240  A    between atoms: _598  and  _600
REMARK  241  A    between atoms: _600  and  _601
REMARK  242  A    between atoms: _603  and  _605
REMARK  243  A    between atoms: _605  and  _606
REMARK  244  A    between atoms: _605  and  _608
REMARK  245  A    between atoms: _608  and  _609
REMARK  246  A    between atoms: _614  and  _616
REMARK  247  A    between atoms: _616  and  _617
REMARK  248  A    between atoms: _616  and  _619
REMARK  249  A    between atoms: _619  and  _620
REMARK  250  A    between atoms: _620  and  _621
REMARK  251  A    between atoms: _628  and  _629
REMARK  252  A    between atoms: _629  and  _645
REMARK  253  A    between atoms: _630  and  _632
REMARK  254  A    between atoms: _632  and  _633
REMARK  255  A    between atoms: _633  and  _634
REMARK  256  A    between atoms: _638  and  _640
REMARK  257  A    between atoms: _640  and  _641
REMARK  258  A    between atoms: _640  and  _648
REMARK  259  A    between atoms: _641  and  _642
REMARK  260  A    between atoms: _642  and  _643
REMARK  261  A    between atoms: _643  and  _644
REMARK  262  A    between atoms: _644  and  _645
REMARK  263  A    between atoms: _650  and  _652
REMARK  264  A    between atoms: _652  and  _653
REMARK  265  A    between atoms: _652  and  _655
REMARK  266  A    between atoms: _655  and  _656
REMARK  267  A    between atoms: _659  and  _661
REMARK  268  A    between atoms: _661  and  _662
REMARK  269  A    between atoms: _664  and  _666
REMARK  270  A    between atoms: _666  and  _667
REMARK  271  A    between atoms: _670  and  _672
REMARK  272  A    between atoms: _672  and  _673
REMARK  273  A    between atoms: _672  and  _675
REMARK  274  A    between atoms: _675  and  _676
REMARK  275  A    between atoms: _679  and  _681
REMARK  276  A    between atoms: _681  and  _682
REMARK  277  A    between atoms: _681  and  _684
REMARK  278  A    between atoms: _684  and  _685
REMARK  279  A    between atoms: _690  and  _691
REMARK                            x       y       z     vdW  Elec       q    Type
REMARK                         _______ _______ _______ _____ _____    ______ ____
ROOT
ATOM      1  O   HOH     1      36.542  19.389  37.055  0.00  0.00    +0.000 OA
ENDROOT
TORSDOF 0
REMARK  Name = ../refined-set-2016/4eky/4eky_pocket.pdb
REMARK  279 active torsions:
REMARK  status: ('A' for Active; 'I' for Inactive)
REMARK    1  A    between atoms: _1  and  _3
REMARK    2  A    between atoms: _3  and  _4
REMARK    3  A    between atoms: _3  and  _6
REMARK    4  A    between atoms: _6  and  _7
REMARK    5  A    between atoms: _12  and  _13
REMARK    6  A    between atoms: _15  and  _17
REMARK    7  A    between atoms: _17  and  _18
REMARK    8  A    between atoms: _17  and  _20
REMARK    9  A    between atoms: _20  and  _21
REMARK   10  A    between atoms: _21  and  _22
REMARK   11  A    between atoms: _25  and  _27
REMARK   12  A    between atoms: _27  and  _28
REMARK   13  A    between atoms: _27  and  _30
REMARK   14  A    between atoms: _30  and  _31
REMARK   15  A    between atoms: _36  and  _37
REMARK   16  A    between atoms: _39  and  _41
REMARK   17  A    between atoms: _41  and  _42
REMARK   18  A    between atoms: _41  and  _44
REMARK   19  A    between atoms: _44  and  _45
REMARK   20  A    between atoms: _50  and  _52
REMARK   21  A    between atoms: _52  and  _53
REMARK   22  A    between atoms: _55  and  _57
REMARK   23  A    between atoms: _57  and  _58
REMARK   24  A    between atoms: _60  and  _62
REMARK   25  A    between atoms: _62  and  _63
REMARK   26  A    between atoms: _62  and  _65
REMARK   27  A    between atoms: _65  and  _66
REMARK   28  A    between atoms: _69  and  _71
REMARK   29  A    between atoms: _71  and  _72
REMARK   30  A    between atoms: _74  and  _76
REMARK   31  A    between atoms: _76  and  _77
REMARK   32  A    between atoms: _76  and  _79
REMARK   33  A    between atoms: _79  and  _80
REMARK   34  A    between atoms: _80  and  _81
REMARK   35  A    between atoms: _81  and  _82
REMARK   36  A    between atoms: _91  and  _93
REMARK   37  A    between atoms: _93  and  _94
REMARK   38  A    between atoms: _93  and  _96
REMARK   39  A    between atoms: _96  and  _97
REMARK   40  A    between atoms: _100  and  _102
REMARK   41  A    between atoms: _102  and  _103
REMARK   42  A    between atoms: _106  and  _108
REMARK   43  A    between atoms: _108  and  _109
REMARK   44  A    between atoms: _108  and  _111
REMARK   45  A    between atoms: _111  and  _112
REMARK   46  A    between atoms: _118  and  _120
REMARK   47  A    between atoms: _120  and  _121
REMARK   48  A    between atoms: _120  and  _123
REMARK   49  A    between atoms: _123  and  _124
REMARK   50  A    between atoms: _129  and  _131
REMARK   51  A    between atoms: _131  and  _132
REMARK   52  A    between atoms: _131  and  _134
REMARK   53  A    between atoms: _134  and  _135
REMARK   54  A    between atoms: _138  and  _140
REMARK   55  A    between atoms: _140  and  _141
REMARK   56  A    between atoms: _140  and  _143
REMARK   57  A    between atoms: _143  and  _144
REMARK   58  A    between atoms: _149  and  _151
REMARK   59  A    between atoms: _151  and  _152
REMARK   60  A    between atoms: _151  and  _154
REMARK   61  A    between atoms: _154  and  _155
REMARK   62  A    between atoms: _161  and  _163
REMARK   63  A    between atoms: _163  and  _164
REMARK   64  A    between atoms: _163  and  _166
REMARK   65  A    between atoms: _166  and  _167
REMARK   66  A    between atoms: _173  and  _175
REMARK   67  A    between atoms: _175  and  _176
REMARK   68  A    between atoms: _175  and  _178
REMARK   69  A    between atoms: _178  and  _179
REMARK   70  A    between atoms: _179  and  _180
REMARK   71  A    between atoms: _180  and  _181
REMARK   72  A    between atoms: _190  and  _192
REMARK   73  A    between atoms: _192  and  _193
REMARK   74  A    between atoms: _192  and  _195
REMARK   75  A    between atoms: _195  and  _196
REMARK   76  A    between atoms: _196  and  _197
REMARK   77  A    between atoms: _200  and  _202
REMARK   78  A    between atoms: _202  and  _203
REMARK   79  A    between atoms: _202  and  _205
REMARK   80  A    between atoms: _205  and  _206
REMARK   81  A    between atoms: _211  and  _213
REMARK   82  A    between atoms: _213  and  _214
REMARK   83  A    between atoms: _213  and  _216
REMARK   84  A    between atoms: _216  and  _217
REMARK   85  A    between atoms: _220  and  _222
REMARK   86  A    between atoms: _222  and  _223
REMARK   87  A    between atoms: _222  and  _225
REMARK   88  A    between atoms: _225  and  _226
REMARK   89  A    between atoms: _229  and  _231
REMARK   90  A    between atoms: _231  and  _232
REMARK   91  A    between atoms: _231  and  _234
REMARK   92  A    between atoms: _234  and  _235
REMARK   93  A    between atoms: _241  and  _242
REMARK   94  A    between atoms: _247  and  _249
REMARK   95  A    between atoms: _249  and  _250
REMARK   96  A    between atoms: _249  and  _252
REMARK   97  A    between atoms: _252  and  _253
REMARK   98  A    between atoms: _258  and  _259
REMARK   99  A    between atoms: _261  and  _263
REMARK  100  A    between atoms: _263  and  _264
REMARK  101  A    between atoms: _263  and  _266
REMARK  102  A    between atoms: _266  and  _267
REMARK  103  A    between atoms: _270  and  _272
REMARK  104  A    between atoms: _272  and  _273
REMARK  105  A    between atoms: _272  and  _275
REMARK  106  A    between atoms: _275  and  _276
REMARK  107  A    between atoms: _281  and  _283
REMARK  108  A    between atoms: _283  and  _284
REMARK  109  A    between atoms: _283  and  _286
REMARK  110  A    between atoms: _286  and  _287
REMARK  111  A    between atoms: _292  and  _294
REMARK  112  A    between atoms: _294  and  _295
REMARK  113  A    between atoms: _294  and  _297
REMARK  114  A    between atoms: _297  and  _298
REMARK  115  A    between atoms: _301  and  _303
REMARK  116  A    between atoms: _303  and  _304
REMARK  117  A    between atoms: _303  and  _306
REMARK  118  A    between atoms: _309  and  _311
REMARK  119  A    between atoms: _311  and  _312
REMARK  120  A    between atoms: _311  and  _314
REMARK  121  A    between atoms: _314  and  _315
REMARK  122  A    between atoms: _319  and  _320
REMARK  123  A    between atoms: _325  and  _327
REMARK  124  A    between atoms: _327  and  _328
REMARK  125  A    between atoms: _327  and  _330
REMARK  126  A    between atoms: _330  and  _331
REMARK  127  A    between atoms: _331  and  _332
REMARK  128  A    between atoms: _335  and  _337
REMARK  129  A    between atoms: _337  and  _338
REMARK  130  A    between atoms: _341  and  _343
REMARK  131  A    between atoms: _343  and  _344
REMARK  132  A    between atoms: _343  and  _346
REMARK  133  A    between atoms: _346  and  _347
REMARK  134  A    between atoms: _350  and  _352
REMARK  135  A    between atoms: _352  and  _353
REMARK  136  A    between atoms: _352  and  _355
REMARK  137  A    between atoms: _355  and  _356
REMARK  138  A    between atoms: _356  and  _357
REMARK  139  A    between atoms: _360  and  _362
REMARK  140  A    between atoms: _362  and  _363
REMARK  141  A    between atoms: _362  and  _365
REMARK  142  A    between atoms: _365  and  _366
REMARK  143  A    between atoms: _366  and  _367
REMARK  144  A    between atoms: _369  and  _371
REMARK  145  A    between atoms: _371  and  _372
REMARK  146  A    between atoms: _375  and  _377
REMARK  147  A    between atoms: _377  and  _378
REMARK  148  A    between atoms: _377  and  _380
REMARK  149  A    between atoms: _380  and  _381
REMARK  150  A    between atoms: _386  and  _388
REMARK  151  A    between atoms: _388  and  _389
REMARK  152  A    between atoms: _391  and  _393
REMARK  153  A    between atoms: _393  and  _394
REMARK  154  A    between atoms: _393  and  _396
REMARK  155  A    between atoms: _399  and  _401
REMARK  156  A    between atoms: _401  and  _402
REMARK  157  A    between atoms: _405  and  _407
REMARK  158  A    between atoms: _407  and  _408
REMARK  159  A    between atoms: _407  and  _410
REMARK  160  A    between atoms: _410  and  _411
REMARK  161  A    between atoms: _416  and  _418
REMARK  162  A    between atoms: _418  and  _419
REMARK  163  A    between atoms: _418  and  _421
REMARK  164  A    between atoms: _421  and  _422
REMARK  165  A    between atoms: _428  and  _430
REMARK  166  A    between atoms: _430  and  _431
REMARK  167  A    between atoms: _430  and  _433
REMARK  168  A    between atoms: _433  and  _434
REMARK  169  A    between atoms: _434  and  _435
REMARK  170  A    between atoms: _435  and  _436
REMARK  171  A    between atoms: _436  and  _437
REMARK  172  A    between atoms: _441  and  _443
REMARK  173  A    between atoms: _443  and  _444
REMARK  174  A    between atoms: _443  and  _446
REMARK  175  A    between atoms: _446  and  _447
REMARK  176  A    between atoms: _450  and  _452
REMARK  177  A    between atoms: _452  and  _453
REMARK  178  A    between atoms: _452  and  _455
REMARK  179  A    between atoms: _455  and  _456
REMARK  180  A    between atoms: _461  and  _463
REMARK  181  A    between atoms: _463  and  _464
REMARK  182  A    between atoms: _466  and  _468
REMARK  183  A    between atoms: _468  and  _469
REMARK  184  A    between atoms: _468  and  _471
REMARK  185  A    between atoms: _471  and  _472
REMARK  186  A    between atoms: _475  and  _477
REMARK  187  A    between atoms: _477  and  _478
REMARK  188  A    between atoms: _477  and  _480
REMARK  189  A    between atoms: _480  and  _481
REMARK  190  A    between atoms: _481  and  _482
REMARK  191  A    between atoms: _482  and  _483
REMARK  192  A    between atoms: _483  and  _484
REMARK  193  A    between atoms: _488  and  _490
REMARK  194  A    between atoms: _490  and  _491
REMARK  195  A    between atoms: _490  and  _493
REMARK  196  A    between atoms: _493  and  _494
REMARK  197  A    between atoms: _494  and  _495
REMARK  198  A    between atoms: _495  and  _496
REMARK  199  A    between atoms: _505  and  _507
REMARK  200  A    between atoms: _507  and  _508
REMARK  201  A    between atoms: _507  and  _510
REMARK  202  A    between atoms: _510  and  _511
REMARK  203  A    between atoms: _516  and  _518
REMARK  204  A    between atoms: _518  and  _519
REMARK  205  A    between atoms: _518  and  _521
REMARK  206  A    between atoms: _521  and  _522
REMARK  207  A    between atoms: _527  and  _528
REMARK  208  A    between atoms: _530  and  _532
REMARK  209  A    between atoms: _532  and  _533
REMARK  210  A    between atoms: _532  and  _535
REMARK  211  A    between atoms: _535  and  _536
REMARK  212  A    between atoms: _536  and  _537
REMARK  213  A    between atoms: _537  and  _538
REMARK  214  A    between atoms: _538  and  _539
REMARK  215  A    between atoms: _543  and  _545
REMARK  216  A    between atoms: _545  and  _546
REMARK  217  A    between atoms: _545  and  _548
REMARK  218  A    between atoms: _548  and  _549
REMARK  219  A    between atoms: _551  and  _553
REMARK  220  A    between atoms: _553  and  _554
REMARK  221  A    between atoms: _553  and  _556
REMARK  222  A    between atoms: _556  and  _557
REMARK  223  A    between atoms: _560  and  _562
REMARK  224  A    between atoms: _562  and  _563
REMARK  225  A    between atoms: _562  and  _565
REMARK  226  A    between atoms: _565  and  _566
REMARK  227  A    between atoms: _566  and  _567
REMARK  228  A    between atoms: _570  and  _572
REMARK  229  A    between atoms: _572  and  _573
REMARK  230  A    between atoms: _576  and  _578
REMARK  231  A    between atoms: _578  and  _579
REMARK  232  A    between atoms: _578  and  _581
REMARK  233  A    between atoms: _581  and  _582
REMARK  234  A    between atoms: _584  and  _586
REMARK  235  A    between atoms: _586  and  _587
REMARK  236  A    between atoms: _589  and  _591
REMARK  237  A    between atoms: _591  and  _592
REMARK  238  A    between atoms: _591  and  _594
REMARK  239  A    between atoms: _594  and  _595
REMARK  240  A    between atoms: _598  and  _600
REMARK  241  A    between atoms: _600  and  _601
REMARK  242  A    between atoms: _603  and  _605
REMARK  243  A    between atoms: _605  and  _606
REMARK  244  A    between atoms: _605  and  _608
REMARK  245  A    between atoms: _608  and  _609
REMARK  246  A    between atoms: _614  and  _616
REMARK  247  A    between atoms: _616  and  _617
REMARK  248  A    between atoms: _616  and  _619
REMARK  249  A    between atoms: _619  and  _620
REMARK  250  A    between atoms: _620  and  _621
REMARK  251  A    between atoms: _628  and  _629
REMARK  252  A    between atoms: _629  and  _645
REMARK  253  A    between atoms: _630  and  _632
REMARK  254  A    between atoms: _632  and  _633
REMARK  255  A    between atoms: _633  and  _634
REMARK  256  A    between atoms: _638  and  _640
REMARK  257  A    between atoms: _640  and  _641
REMARK  258  A    between atoms: _640  and  _648
REMARK  259  A    between atoms: _641  and  _642
REMARK  260  A    between atoms: _642  and  _643
REMARK  261  A    between atoms: _643  and  _644
REMARK  262  A    between atoms: _644  and  _645
REMARK  263  A    between atoms: _650  and  _652
REMARK  264  A    between atoms: _652  and  _653
REMARK  265  A    between atoms: _652  and  _655
REMARK  266  A    between atoms: _655  and  _656
REMARK  267  A    between atoms: _659  and  _661
REMARK  268  A    between atoms: _661  and  _662
REMARK  269  A    between atoms: _664  and  _666
REMARK  270  A    between atoms: _666  and  _667
REMARK  271  A    between atoms: _670  and  _672
REMARK  272  A    between atoms: _672  and  _673
REMARK  273  A    between atoms: _672  and  _675
REMARK  274  A    between atoms: _675  and  _676
REMARK  275  A    between atoms: _679  and  _681
REMARK  276  A    between atoms: _681  and  _682
REMARK  277  A    between atoms: _681  and  _684
REMARK  278  A    between atoms: _684  and  _685
REMARK  279  A    between atoms: _690  and  _691
REMARK                            x       y       z     vdW  Elec       q    Type
REMARK                         _______ _______ _______ _____ _____    ______ ____
ROOT
ATOM      1  O   HOH     1      31.304  24.008  33.154  0.00  0.00    +0.000 OA
ENDROOT
TORSDOF 0
REMARK  Name = ../refined-set-2016/4eky/4eky_pocket.pdb
REMARK  279 active torsions:
REMARK  status: ('A' for Active; 'I' for Inactive)
REMARK    1  A    between atoms: _1  and  _3
REMARK    2  A    between atoms: _3  and  _4
REMARK    3  A    between atoms: _3  and  _6
REMARK    4  A    between atoms: _6  and  _7
REMARK    5  A    between atoms: _12  and  _13
REMARK    6  A    between atoms: _15  and  _17
REMARK    7  A    between atoms: _17  and  _18
REMARK    8  A    between atoms: _17  and  _20
REMARK    9  A    between atoms: _20  and  _21
REMARK   10  A    between atoms: _21  and  _22
REMARK   11  A    between atoms: _25  and  _27
REMARK   12  A    between atoms: _27  and  _28
REMARK   13  A    between atoms: _27  and  _30
REMARK   14  A    between atoms: _30  and  _31
REMARK   15  A    between atoms: _36  and  _37
REMARK   16  A    between atoms: _39  and  _41
REMARK   17  A    between atoms: _41  and  _42
REMARK   18  A    between atoms: _41  and  _44
REMARK   19  A    between atoms: _44  and  _45
REMARK   20  A    between atoms: _50  and  _52
REMARK   21  A    between atoms: _52  and  _53
REMARK   22  A    between atoms: _55  and  _57
REMARK   23  A    between atoms: _57  and  _58
REMARK   24  A    between atoms: _60  and  _62
REMARK   25  A    between atoms: _62  and  _63
REMARK   26  A    between atoms: _62  and  _65
REMARK   27  A    between atoms: _65  and  _66
REMARK   28  A    between atoms: _69  and  _71
REMARK   29  A    between atoms: _71  and  _72
REMARK   30  A    between atoms: _74  and  _76
REMARK   31  A    between atoms: _76  and  _77
REMARK   32  A    between atoms: _76  and  _79
REMARK   33  A    between atoms: _79  and  _80
REMARK   34  A    between atoms: _80  and  _81
REMARK   35  A    between atoms: _81  and  _82
REMARK   36  A    between atoms: _91  and  _93
REMARK   37  A    between atoms: _93  and  _94
REMARK   38  A    between atoms: _93  and  _96
REMARK   39  A    between atoms: _96  and  _97
REMARK   40  A    between atoms: _100  and  _102
REMARK   41  A    between atoms: _102  and  _103
REMARK   42  A    between atoms: _106  and  _108
REMARK   43  A    between atoms: _108  and  _109
REMARK   44  A    between atoms: _108  and  _111
REMARK   45  A    between atoms: _111  and  _112
REMARK   46  A    between atoms: _118  and  _120
REMARK   47  A    between atoms: _120  and  _121
REMARK   48  A    between atoms: _120  and  _123
REMARK   49  A    between atoms: _123  and  _124
REMARK   50  A    between atoms: _129  and  _131
REMARK   51  A    between atoms: _131  and  _132
REMARK   52  A    between atoms: _131  and  _134
REMARK   53  A    between atoms: _134  and  _135
REMARK   54  A    between atoms: _138  and  _140
REMARK   55  A    between atoms: _140  and  _141
REMARK   56  A    between atoms: _140  and  _143
REMARK   57  A    between atoms: _143  and  _144
REMARK   58  A    between atoms: _149  and  _151
REMARK   59  A    between atoms: _151  and  _152
REMARK   60  A    between atoms: _151  and  _154
REMARK   61  A    between atoms: _154  and  _155
REMARK   62  A    between atoms: _161  and  _163
REMARK   63  A    between atoms: _163  and  _164
REMARK   64  A    between atoms: _163  and  _166
REMARK   65  A    between atoms: _166  and  _167
REMARK   66  A    between atoms: _173  and  _175
REMARK   67  A    between atoms: _175  and  _176
REMARK   68  A    between atoms: _175  and  _178
REMARK   69  A    between atoms: _178  and  _179
REMARK   70  A    between atoms: _179  and  _180
REMARK   71  A    between atoms: _180  and  _181
REMARK   72  A    between atoms: _190  and  _192
REMARK   73  A    between atoms: _192  and  _193
REMARK   74  A    between atoms: _192  and  _195
REMARK   75  A    between atoms: _195  and  _196
REMARK   76  A    between atoms: _196  and  _197
REMARK   77  A    between atoms: _200  and  _202
REMARK   78  A    between atoms: _202  and  _203
REMARK   79  A    between atoms: _202  and  _205
REMARK   80  A    between atoms: _205  and  _206
REMARK   81  A    between atoms: _211  and  _213
REMARK   82  A    between atoms: _213  and  _214
REMARK   83  A    between atoms: _213  and  _216
REMARK   84  A    between atoms: _216  and  _217
REMARK   85  A    between atoms: _220  and  _222
REMARK   86  A    between atoms: _222  and  _223
REMARK   87  A    between atoms: _222  and  _225
REMARK   88  A    between atoms: _225  and  _226
REMARK   89  A    between atoms: _229  and  _231
REMARK   90  A    between atoms: _231  and  _232
REMARK   91  A    between atoms: _231  and  _234
REMARK   92  A    between atoms: _234  and  _235
REMARK   93  A    between atoms: _241  and  _242
REMARK   94  A    between atoms: _247  and  _249
REMARK   95  A    between atoms: _249  and  _250
REMARK   96  A    between atoms: _249  and  _252
REMARK   97  A    between atoms: _252  and  _253
REMARK   98  A    between atoms: _258  and  _259
REMARK   99  A    between atoms: _261  and  _263
REMARK  100  A    between atoms: _263  and  _264
REMARK  101  A    between atoms: _263  and  _266
REMARK  102  A    between atoms: _266  and  _267
REMARK  103  A    between atoms: _270  and  _272
REMARK  104  A    between atoms: _272  and  _273
REMARK  105  A    between atoms: _272  and  _275
REMARK  106  A    between atoms: _275  and  _276
REMARK  107  A    between atoms: _281  and  _283
REMARK  108  A    between atoms: _283  and  _284
REMARK  109  A    between atoms: _283  and  _286
REMARK  110  A    between atoms: _286  and  _287
REMARK  111  A    between atoms: _292  and  _294
REMARK  112  A    between atoms: _294  and  _295
REMARK  113  A    between atoms: _294  and  _297
REMARK  114  A    between atoms: _297  and  _298
REMARK  115  A    between atoms: _301  and  _303
REMARK  116  A    between atoms: _303  and  _304
REMARK  117  A    between atoms: _303  and  _306
REMARK  118  A    between atoms: _309  and  _311
REMARK  119  A    between atoms: _311  and  _312
REMARK  120  A    between atoms: _311  and  _314
REMARK  121  A    between atoms: _314  and  _315
REMARK  122  A    between atoms: _319  and  _320
REMARK  123  A    between atoms: _325  and  _327
REMARK  124  A    between atoms: _327  and  _328
REMARK  125  A    between atoms: _327  and  _330
REMARK  126  A    between atoms: _330  and  _331
REMARK  127  A    between atoms: _331  and  _332
REMARK  128  A    between atoms: _335  and  _337
REMARK  129  A    between atoms: _337  and  _338
REMARK  130  A    between atoms: _341  and  _343
REMARK  131  A    between atoms: _343  and  _344
REMARK  132  A    between atoms: _343  and  _346
REMARK  133  A    between atoms: _346  and  _347
REMARK  134  A    between atoms: _350  and  _352
REMARK  135  A    between atoms: _352  and  _353
REMARK  136  A    between atoms: _352  and  _355
REMARK  137  A    between atoms: _355  and  _356
REMARK  138  A    between atoms: _356  and  _357
REMARK  139  A    between atoms: _360  and  _362
REMARK  140  A    between atoms: _362  and  _363
REMARK  141  A    between atoms: _362  and  _365
REMARK  142  A    between atoms: _365  and  _366
REMARK  143  A    between atoms: _366  and  _367
REMARK  144  A    between atoms: _369  and  _371
REMARK  145  A    between atoms: _371  and  _372
REMARK  146  A    between atoms: _375  and  _377
REMARK  147  A    between atoms: _377  and  _378
REMARK  148  A    between atoms: _377  and  _380
REMARK  149  A    between atoms: _380  and  _381
REMARK  150  A    between atoms: _386  and  _388
REMARK  151  A    between atoms: _388  and  _389
REMARK  152  A    between atoms: _391  and  _393
REMARK  153  A    between atoms: _393  and  _394
REMARK  154  A    between atoms: _393  and  _396
REMARK  155  A    between atoms: _399  and  _401
REMARK  156  A    between atoms: _401  and  _402
REMARK  157  A    between atoms: _405  and  _407
REMARK  158  A    between atoms: _407  and  _408
REMARK  159  A    between atoms: _407  and  _410
REMARK  160  A    between atoms: _410  and  _411
REMARK  161  A    between atoms: _416  and  _418
REMARK  162  A    between atoms: _418  and  _419
REMARK  163  A    between atoms: _418  and  _421
REMARK  164  A    between atoms: _421  and  _422
REMARK  165  A    between atoms: _428  and  _430
REMARK  166  A    between atoms: _430  and  _431
REMARK  167  A    between atoms: _430  and  _433
REMARK  168  A    between atoms: _433  and  _434
REMARK  169  A    between atoms: _434  and  _435
REMARK  170  A    between atoms: _435  and  _436
REMARK  171  A    between atoms: _436  and  _437
REMARK  172  A    between atoms: _441  and  _443
REMARK  173  A    between atoms: _443  and  _444
REMARK  174  A    between atoms: _443  and  _446
REMARK  175  A    between atoms: _446  and  _447
REMARK  176  A    between atoms: _450  and  _452
REMARK  177  A    between atoms: _452  and  _453
REMARK  178  A    between atoms: _452  and  _455
REMARK  179  A    between atoms: _455  and  _456
REMARK  180  A    between atoms: _461  and  _463
REMARK  181  A    between atoms: _463  and  _464
REMARK  182  A    between atoms: _466  and  _468
REMARK  183  A    between atoms: _468  and  _469
REMARK  184  A    between atoms: _468  and  _471
REMARK  185  A    between atoms: _471  and  _472
REMARK  186  A    between atoms: _475  and  _477
REMARK  187  A    between atoms: _477  and  _478
REMARK  188  A    between atoms: _477  and  _480
REMARK  189  A    between atoms: _480  and  _481
REMARK  190  A    between atoms: _481  and  _482
REMARK  191  A    between atoms: _482  and  _483
REMARK  192  A    between atoms: _483  and  _484
REMARK  193  A    between atoms: _488  and  _490
REMARK  194  A    between atoms: _490  and  _491
REMARK  195  A    between atoms: _490  and  _493
REMARK  196  A    between atoms: _493  and  _494
REMARK  197  A    between atoms: _494  and  _495
REMARK  198  A    between atoms: _495  and  _496
REMARK  199  A    between atoms: _505  and  _507
REMARK  200  A    between atoms: _507  and  _508
REMARK  201  A    between atoms: _507  and  _510
REMARK  202  A    between atoms: _510  and  _511
REMARK  203  A    between atoms: _516  and  _518
REMARK  204  A    between atoms: _518  and  _519
REMARK  205  A    between atoms: _518  and  _521
REMARK  206  A    between atoms: _521  and  _522
REMARK  207  A    between atoms: _527  and  _528
REMARK  208  A    between atoms: _530  and  _532
REMARK  209  A    between atoms: _532  and  _533
REMARK  210  A    between atoms: _532  and  _535
REMARK  211  A    between atoms: _535  and  _536
REMARK  212  A    between atoms: _536  and  _537
REMARK  213  A    between atoms: _537  and  _538
REMARK  214  A    between atoms: _538  and  _539
REMARK  215  A    between atoms: _543  and  _545
REMARK  216  A    between atoms: _545  and  _546
REMARK  217  A    between atoms: _545  and  _548
REMARK  218  A    between atoms: _548  and  _549
REMARK  219  A    between atoms: _551  and  _553
REMARK  220  A    between atoms: _553  and  _554
REMARK  221  A    between atoms: _553  and  _556
REMARK  222  A    between atoms: _556  and  _557
REMARK  223  A    between atoms: _560  and  _562
REMARK  224  A    between atoms: _562  and  _563
REMARK  225  A    between atoms: _562  and  _565
REMARK  226  A    between atoms: _565  and  _566
REMARK  227  A    between atoms: _566  and  _567
REMARK  228  A    between atoms: _570  and  _572
REMARK  229  A    between atoms: _572  and  _573
REMARK  230  A    between atoms: _576  and  _578
REMARK  231  A    between atoms: _578  and  _579
REMARK  232  A    between atoms: _578  and  _581
REMARK  233  A    between atoms: _581  and  _582
REMARK  234  A    between atoms: _584  and  _586
REMARK  235  A    between atoms: _586  and  _587
REMARK  236  A    between atoms: _589  and  _591
REMARK  237  A    between atoms: _591  and  _592
REMARK  238  A    between atoms: _591  and  _594
REMARK  239  A    between atoms: _594  and  _595
REMARK  240  A    between atoms: _598  and  _600
REMARK  241  A    between atoms: _600  and  _601
REMARK  242  A    between atoms: _603  and  _605
REMARK  243  A    between atoms: _605  and  _606
REMARK  244  A    between atoms: _605  and  _608
REMARK  245  A    between atoms: _608  and  _609
REMARK  246  A    between atoms: _614  and  _616
REMARK  247  A    between atoms: _616  and  _617
REMARK  248  A    between atoms: _616  and  _619
REMARK  249  A    between atoms: _619  and  _620
REMARK  250  A    between atoms: _620  and  _621
REMARK  251  A    between atoms: _628  and  _629
REMARK  252  A    between atoms: _629  and  _645
REMARK  253  A    between atoms: _630  and  _632
REMARK  254  A    between atoms: _632  and  _633
REMARK  255  A    between atoms: _633  and  _634
REMARK  256  A    between atoms: _638  and  _640
REMARK  257  A    between atoms: _640  and  _641
REMARK  258  A    between atoms: _640  and  _648
REMARK  259  A    between atoms: _641  and  _642
REMARK  260  A    between atoms: _642  and  _643
REMARK  261  A    between atoms: _643  and  _644
REMARK  262  A    between atoms: _644  and  _645
REMARK  263  A    between atoms: _650  and  _652
REMARK  264  A    between atoms: _652  and  _653
REMARK  265  A    between atoms: _652  and  _655
REMARK  266  A    between atoms: _655  and  _656
REMARK  267  A    between atoms: _659  and  _661
REMARK  268  A    between atoms: _661  and  _662
REMARK  269  A    between atoms: _664  and  _666
REMARK  270  A    between atoms: _666  and  _667
REMARK  271  A    between atoms: _670  and  _672
REMARK  272  A    between atoms: _672  and  _673
REMARK  273  A    between atoms: _672  and  _675
REMARK  274  A    between atoms: _675  and  _676
REMARK  275  A    between atoms: _679  and  _681
REMARK  276  A    between atoms: _681  and  _682
REMARK  277  A    between atoms: _681  and  _684
REMARK  278  A    between atoms: _684  and  _685
REMARK  279  A    between atoms: _690  and  _691
REMARK                            x       y       z     vdW  Elec       q    Type
REMARK                         _______ _______ _______ _____ _____    ______ ____
ROOT
ATOM      1  O   HOH     1      36.101  24.592  24.197  0.00  0.00    +0.000 OA
ENDROOT
TORSDOF 0
REMARK  Name = ../refined-set-2016/4eky/4eky_pocket.pdb
REMARK  279 active torsions:
REMARK  status: ('A' for Active; 'I' for Inactive)
REMARK    1  A    between atoms: _1  and  _3
REMARK    2  A    between atoms: _3  and  _4
REMARK    3  A    between atoms: _3  and  _6
REMARK    4  A    between atoms: _6  and  _7
REMARK    5  A    between atoms: _12  and  _13
REMARK    6  A    between atoms: _15  and  _17
REMARK    7  A    between atoms: _17  and  _18
REMARK    8  A    between atoms: _17  and  _20
REMARK    9  A    between atoms: _20  and  _21
REMARK   10  A    between atoms: _21  and  _22
REMARK   11  A    between atoms: _25  and  _27
REMARK   12  A    between atoms: _27  and  _28
REMARK   13  A    between atoms: _27  and  _30
REMARK   14  A    between atoms: _30  and  _31
REMARK   15  A    between atoms: _36  and  _37
REMARK   16  A    between atoms: _39  and  _41
REMARK   17  A    between atoms: _41  and  _42
REMARK   18  A    between atoms: _41  and  _44
REMARK   19  A    between atoms: _44  and  _45
REMARK   20  A    between atoms: _50  and  _52
REMARK   21  A    between atoms: _52  and  _53
REMARK   22  A    between atoms: _55  and  _57
REMARK   23  A    between atoms: _57  and  _58
REMARK   24  A    between atoms: _60  and  _62
REMARK   25  A    between atoms: _62  and  _63
REMARK   26  A    between atoms: _62  and  _65
REMARK   27  A    between atoms: _65  and  _66
REMARK   28  A    between atoms: _69  and  _71
REMARK   29  A    between atoms: _71  and  _72
REMARK   30  A    between atoms: _74  and  _76
REMARK   31  A    between atoms: _76  and  _77
REMARK   32  A    between atoms: _76  and  _79
REMARK   33  A    between atoms: _79  and  _80
REMARK   34  A    between atoms: _80  and  _81
REMARK   35  A    between atoms: _81  and  _82
REMARK   36  A    between atoms: _91  and  _93
REMARK   37  A    between atoms: _93  and  _94
REMARK   38  A    between atoms: _93  and  _96
REMARK   39  A    between atoms: _96  and  _97
REMARK   40  A    between atoms: _100  and  _102
REMARK   41  A    between atoms: _102  and  _103
REMARK   42  A    between atoms: _106  and  _108
REMARK   43  A    between atoms: _108  and  _109
REMARK   44  A    between atoms: _108  and  _111
REMARK   45  A    between atoms: _111  and  _112
REMARK   46  A    between atoms: _118  and  _120
REMARK   47  A    between atoms: _120  and  _121
REMARK   48  A    between atoms: _120  and  _123
REMARK   49  A    between atoms: _123  and  _124
REMARK   50  A    between atoms: _129  and  _131
REMARK   51  A    between atoms: _131  and  _132
REMARK   52  A    between atoms: _131  and  _134
REMARK   53  A    between atoms: _134  and  _135
REMARK   54  A    between atoms: _138  and  _140
REMARK   55  A    between atoms: _140  and  _141
REMARK   56  A    between atoms: _140  and  _143
REMARK   57  A    between atoms: _143  and  _144
REMARK   58  A    between atoms: _149  and  _151
REMARK   59  A    between atoms: _151  and  _152
REMARK   60  A    between atoms: _151  and  _154
REMARK   61  A    between atoms: _154  and  _155
REMARK   62  A    between atoms: _161  and  _163
REMARK   63  A    between atoms: _163  and  _164
REMARK   64  A    between atoms: _163  and  _166
REMARK   65  A    between atoms: _166  and  _167
REMARK   66  A    between atoms: _173  and  _175
REMARK   67  A    between atoms: _175  and  _176
REMARK   68  A    between atoms: _175  and  _178
REMARK   69  A    between atoms: _178  and  _179
REMARK   70  A    between atoms: _179  and  _180
REMARK   71  A    between atoms: _180  and  _181
REMARK   72  A    between atoms: _190  and  _192
REMARK   73  A    between atoms: _192  and  _193
REMARK   74  A    between atoms: _192  and  _195
REMARK   75  A    between atoms: _195  and  _196
REMARK   76  A    between atoms: _196  and  _197
REMARK   77  A    between atoms: _200  and  _202
REMARK   78  A    between atoms: _202  and  _203
REMARK   79  A    between atoms: _202  and  _205
REMARK   80  A    between atoms: _205  and  _206
REMARK   81  A    between atoms: _211  and  _213
REMARK   82  A    between atoms: _213  and  _214
REMARK   83  A    between atoms: _213  and  _216
REMARK   84  A    between atoms: _216  and  _217
REMARK   85  A    between atoms: _220  and  _222
REMARK   86  A    between atoms: _222  and  _223
REMARK   87  A    between atoms: _222  and  _225
REMARK   88  A    between atoms: _225  and  _226
REMARK   89  A    between atoms: _229  and  _231
REMARK   90  A    between atoms: _231  and  _232
REMARK   91  A    between atoms: _231  and  _234
REMARK   92  A    between atoms: _234  and  _235
REMARK   93  A    between atoms: _241  and  _242
REMARK   94  A    between atoms: _247  and  _249
REMARK   95  A    between atoms: _249  and  _250
REMARK   96  A    between atoms: _249  and  _252
REMARK   97  A    between atoms: _252  and  _253
REMARK   98  A    between atoms: _258  and  _259
REMARK   99  A    between atoms: _261  and  _263
REMARK  100  A    between atoms: _263  and  _264
REMARK  101  A    between atoms: _263  and  _266
REMARK  102  A    between atoms: _266  and  _267
REMARK  103  A    between atoms: _270  and  _272
REMARK  104  A    between atoms: _272  and  _273
REMARK  105  A    between atoms: _272  and  _275
REMARK  106  A    between atoms: _275  and  _276
REMARK  107  A    between atoms: _281  and  _283
REMARK  108  A    between atoms: _283  and  _284
REMARK  109  A    between atoms: _283  and  _286
REMARK  110  A    between atoms: _286  and  _287
REMARK  111  A    between atoms: _292  and  _294
REMARK  112  A    between atoms: _294  and  _295
REMARK  113  A    between atoms: _294  and  _297
REMARK  114  A    between atoms: _297  and  _298
REMARK  115  A    between atoms: _301  and  _303
REMARK  116  A    between atoms: _303  and  _304
REMARK  117  A    between atoms: _303  and  _306
REMARK  118  A    between atoms: _309  and  _311
REMARK  119  A    between atoms: _311  and  _312
REMARK  120  A    between atoms: _311  and  _314
REMARK  121  A    between atoms: _314  and  _315
REMARK  122  A    between atoms: _319  and  _320
REMARK  123  A    between atoms: _325  and  _327
REMARK  124  A    between atoms: _327  and  _328
REMARK  125  A    between atoms: _327  and  _330
REMARK  126  A    between atoms: _330  and  _331
REMARK  127  A    between atoms: _331  and  _332
REMARK  128  A    between atoms: _335  and  _337
REMARK  129  A    between atoms: _337  and  _338
REMARK  130  A    between atoms: _341  and  _343
REMARK  131  A    between atoms: _343  and  _344
REMARK  132  A    between atoms: _343  and  _346
REMARK  133  A    between atoms: _346  and  _347
REMARK  134  A    between atoms: _350  and  _352
REMARK  135  A    between atoms: _352  and  _353
REMARK  136  A    between atoms: _352  and  _355
REMARK  137  A    between atoms: _355  and  _356
REMARK  138  A    between atoms: _356  and  _357
REMARK  139  A    between atoms: _360  and  _362
REMARK  140  A    between atoms: _362  and  _363
REMARK  141  A    between atoms: _362  and  _365
REMARK  142  A    between atoms: _365  and  _366
REMARK  143  A    between atoms: _366  and  _367
REMARK  144  A    between atoms: _369  and  _371
REMARK  145  A    between atoms: _371  and  _372
REMARK  146  A    between atoms: _375  and  _377
REMARK  147  A    between atoms: _377  and  _378
REMARK  148  A    between atoms: _377  and  _380
REMARK  149  A    between atoms: _380  and  _381
REMARK  150  A    between atoms: _386  and  _388
REMARK  151  A    between atoms: _388  and  _389
REMARK  152  A    between atoms: _391  and  _393
REMARK  153  A    between atoms: _393  and  _394
REMARK  154  A    between atoms: _393  and  _396
REMARK  155  A    between atoms: _399  and  _401
REMARK  156  A    between atoms: _401  and  _402
REMARK  157  A    between atoms: _405  and  _407
REMARK  158  A    between atoms: _407  and  _408
REMARK  159  A    between atoms: _407  and  _410
REMARK  160  A    between atoms: _410  and  _411
REMARK  161  A    between atoms: _416  and  _418
REMARK  162  A    between atoms: _418  and  _419
REMARK  163  A    between atoms: _418  and  _421
REMARK  164  A    between atoms: _421  and  _422
REMARK  165  A    between atoms: _428  and  _430
REMARK  166  A    between atoms: _430  and  _431
REMARK  167  A    between atoms: _430  and  _433
REMARK  168  A    between atoms: _433  and  _434
REMARK  169  A    between atoms: _434  and  _435
REMARK  170  A    between atoms: _435  and  _436
REMARK  171  A    between atoms: _436  and  _437
REMARK  172  A    between atoms: _441  and  _443
REMARK  173  A    between atoms: _443  and  _444
REMARK  174  A    between atoms: _443  and  _446
REMARK  175  A    between atoms: _446  and  _447
REMARK  176  A    between atoms: _450  and  _452
REMARK  177  A    between atoms: _452  and  _453
REMARK  178  A    between atoms: _452  and  _455
REMARK  179  A    between atoms: _455  and  _456
REMARK  180  A    between atoms: _461  and  _463
REMARK  181  A    between atoms: _463  and  _464
REMARK  182  A    between atoms: _466  and  _468
REMARK  183  A    between atoms: _468  and  _469
REMARK  184  A    between atoms: _468  and  _471
REMARK  185  A    between atoms: _471  and  _472
REMARK  186  A    between atoms: _475  and  _477
REMARK  187  A    between atoms: _477  and  _478
REMARK  188  A    between atoms: _477  and  _480
REMARK  189  A    between atoms: _480  and  _481
REMARK  190  A    between atoms: _481  and  _482
REMARK  191  A    between atoms: _482  and  _483
REMARK  192  A    between atoms: _483  and  _484
REMARK  193  A    between atoms: _488  and  _490
REMARK  194  A    between atoms: _490  and  _491
REMARK  195  A    between atoms: _490  and  _493
REMARK  196  A    between atoms: _493  and  _494
REMARK  197  A    between atoms: _494  and  _495
REMARK  198  A    between atoms: _495  and  _496
REMARK  199  A    between atoms: _505  and  _507
REMARK  200  A    between atoms: _507  and  _508
REMARK  201  A    between atoms: _507  and  _510
REMARK  202  A    between atoms: _510  and  _511
REMARK  203  A    between atoms: _516  and  _518
REMARK  204  A    between atoms: _518  and  _519
REMARK  205  A    between atoms: _518  and  _521
REMARK  206  A    between atoms: _521  and  _522
REMARK  207  A    between atoms: _527  and  _528
REMARK  208  A    between atoms: _530  and  _532
REMARK  209  A    between atoms: _532  and  _533
REMARK  210  A    between atoms: _532  and  _535
REMARK  211  A    between atoms: _535  and  _536
REMARK  212  A    between atoms: _536  and  _537
REMARK  213  A    between atoms: _537  and  _538
REMARK  214  A    between atoms: _538  and  _539
REMARK  215  A    between atoms: _543  and  _545
REMARK  216  A    between atoms: _545  and  _546
REMARK  217  A    between atoms: _545  and  _548
REMARK  218  A    between atoms: _548  and  _549
REMARK  219  A    between atoms: _551  and  _553
REMARK  220  A    between atoms: _553  and  _554
REMARK  221  A    between atoms: _553  and  _556
REMARK  222  A    between atoms: _556  and  _557
REMARK  223  A    between atoms: _560  and  _562
REMARK  224  A    between atoms: _562  and  _563
REMARK  225  A    between atoms: _562  and  _565
REMARK  226  A    between atoms: _565  and  _566
REMARK  227  A    between atoms: _566  and  _567
REMARK  228  A    between atoms: _570  and  _572
REMARK  229  A    between atoms: _572  and  _573
REMARK  230  A    between atoms: _576  and  _578
REMARK  231  A    between atoms: _578  and  _579
REMARK  232  A    between atoms: _578  and  _581
REMARK  233  A    between atoms: _581  and  _582
REMARK  234  A    between atoms: _584  and  _586
REMARK  235  A    between atoms: _586  and  _587
REMARK  236  A    between atoms: _589  and  _591
REMARK  237  A    between atoms: _591  and  _592
REMARK  238  A    between atoms: _591  and  _594
REMARK  239  A    between atoms: _594  and  _595
REMARK  240  A    between atoms: _598  and  _600
REMARK  241  A    between atoms: _600  and  _601
REMARK  242  A    between atoms: _603  and  _605
REMARK  243  A    between atoms: _605  and  _606
REMARK  244  A    between atoms: _605  and  _608
REMARK  245  A    between atoms: _608  and  _609
REMARK  246  A    between atoms: _614  and  _616
REMARK  247  A    between atoms: _616  and  _617
REMARK  248  A    between atoms: _616  and  _619
REMARK  249  A    between atoms: _619  and  _620
REMARK  250  A    between atoms: _620  and  _621
REMARK  251  A    between atoms: _628  and  _629
REMARK  252  A    between atoms: _629  and  _645
REMARK  253  A    between atoms: _630  and  _632
REMARK  254  A    between atoms: _632  and  _633
REMARK  255  A    between atoms: _633  and  _634
REMARK  256  A    between atoms: _638  and  _640
REMARK  257  A    between atoms: _640  and  _641
REMARK  258  A    between atoms: _640  and  _648
REMARK  259  A    between atoms: _641  and  _642
REMARK  260  A    between atoms: _642  and  _643
REMARK  261  A    between atoms: _643  and  _644
REMARK  262  A    between atoms: _644  and  _645
REMARK  263  A    between atoms: _650  and  _652
REMARK  264  A    between atoms: _652  and  _653
REMARK  265  A    between atoms: _652  and  _655
REMARK  266  A    between atoms: _655  and  _656
REMARK  267  A    between atoms: _659  and  _661
REMARK  268  A    between atoms: _661  and  _662
REMARK  269  A    between atoms: _664  and  _666
REMARK  270  A    between atoms: _666  and  _667
REMARK  271  A    between atoms: _670  and  _672
REMARK  272  A    between atoms: _672  and  _673
REMARK  273  A    between atoms: _672  and  _675
REMARK  274  A    between atoms: _675  and  _676
REMARK  275  A    between atoms: _679  and  _681
REMARK  276  A    between atoms: _681  and  _682
REMARK  277  A    between atoms: _681  and  _684
REMARK  278  A    between atoms: _684  and  _685
REMARK  279  A    between atoms: _690  and  _691
REMARK                            x       y       z     vdW  Elec       q    Type
REMARK                         _______ _______ _______ _____ _____    ______ ____
ROOT
ATOM      1  O   HOH     1      39.180  22.939  19.718  0.00  0.00    +0.000 OA
ENDROOT
TORSDOF 0
REMARK  Name = ../refined-set-2016/4eky/4eky_pocket.pdb
REMARK  279 active torsions:
REMARK  status: ('A' for Active; 'I' for Inactive)
REMARK    1  A    between atoms: _1  and  _3
REMARK    2  A    between atoms: _3  and  _4
REMARK    3  A    between atoms: _3  and  _6
REMARK    4  A    between atoms: _6  and  _7
REMARK    5  A    between atoms: _12  and  _13
REMARK    6  A    between atoms: _15  and  _17
REMARK    7  A    between atoms: _17  and  _18
REMARK    8  A    between atoms: _17  and  _20
REMARK    9  A    between atoms: _20  and  _21
REMARK   10  A    between atoms: _21  and  _22
REMARK   11  A    between atoms: _25  and  _27
REMARK   12  A    between atoms: _27  and  _28
REMARK   13  A    between atoms: _27  and  _30
REMARK   14  A    between atoms: _30  and  _31
REMARK   15  A    between atoms: _36  and  _37
REMARK   16  A    between atoms: _39  and  _41
REMARK   17  A    between atoms: _41  and  _42
REMARK   18  A    between atoms: _41  and  _44
REMARK   19  A    between atoms: _44  and  _45
REMARK   20  A    between atoms: _50  and  _52
REMARK   21  A    between atoms: _52  and  _53
REMARK   22  A    between atoms: _55  and  _57
REMARK   23  A    between atoms: _57  and  _58
REMARK   24  A    between atoms: _60  and  _62
REMARK   25  A    between atoms: _62  and  _63
REMARK   26  A    between atoms: _62  and  _65
REMARK   27  A    between atoms: _65  and  _66
REMARK   28  A    between atoms: _69  and  _71
REMARK   29  A    between atoms: _71  and  _72
REMARK   30  A    between atoms: _74  and  _76
REMARK   31  A    between atoms: _76  and  _77
REMARK   32  A    between atoms: _76  and  _79
REMARK   33  A    between atoms: _79  and  _80
REMARK   34  A    between atoms: _80  and  _81
REMARK   35  A    between atoms: _81  and  _82
REMARK   36  A    between atoms: _91  and  _93
REMARK   37  A    between atoms: _93  and  _94
REMARK   38  A    between atoms: _93  and  _96
REMARK   39  A    between atoms: _96  and  _97
REMARK   40  A    between atoms: _100  and  _102
REMARK   41  A    between atoms: _102  and  _103
REMARK   42  A    between atoms: _106  and  _108
REMARK   43  A    between atoms: _108  and  _109
REMARK   44  A    between atoms: _108  and  _111
REMARK   45  A    between atoms: _111  and  _112
REMARK   46  A    between atoms: _118  and  _120
REMARK   47  A    between atoms: _120  and  _121
REMARK   48  A    between atoms: _120  and  _123
REMARK   49  A    between atoms: _123  and  _124
REMARK   50  A    between atoms: _129  and  _131
REMARK   51  A    between atoms: _131  and  _132
REMARK   52  A    between atoms: _131  and  _134
REMARK   53  A    between atoms: _134  and  _135
REMARK   54  A    between atoms: _138  and  _140
REMARK   55  A    between atoms: _140  and  _141
REMARK   56  A    between atoms: _140  and  _143
REMARK   57  A    between atoms: _143  and  _144
REMARK   58  A    between atoms: _149  and  _151
REMARK   59  A    between atoms: _151  and  _152
REMARK   60  A    between atoms: _151  and  _154
REMARK   61  A    between atoms: _154  and  _155
REMARK   62  A    between atoms: _161  and  _163
REMARK   63  A    between atoms: _163  and  _164
REMARK   64  A    between atoms: _163  and  _166
REMARK   65  A    between atoms: _166  and  _167
REMARK   66  A    between atoms: _173  and  _175
REMARK   67  A    between atoms: _175  and  _176
REMARK   68  A    between atoms: _175  and  _178
REMARK   69  A    between atoms: _178  and  _179
REMARK   70  A    between atoms: _179  and  _180
REMARK   71  A    between atoms: _180  and  _181
REMARK   72  A    between atoms: _190  and  _192
REMARK   73  A    between atoms: _192  and  _193
REMARK   74  A    between atoms: _192  and  _195
REMARK   75  A    between atoms: _195  and  _196
REMARK   76  A    between atoms: _196  and  _197
REMARK   77  A    between atoms: _200  and  _202
REMARK   78  A    between atoms: _202  and  _203
REMARK   79  A    between atoms: _202  and  _205
REMARK   80  A    between atoms: _205  and  _206
REMARK   81  A    between atoms: _211  and  _213
REMARK   82  A    between atoms: _213  and  _214
REMARK   83  A    between atoms: _213  and  _216
REMARK   84  A    between atoms: _216  and  _217
REMARK   85  A    between atoms: _220  and  _222
REMARK   86  A    between atoms: _222  and  _223
REMARK   87  A    between atoms: _222  and  _225
REMARK   88  A    between atoms: _225  and  _226
REMARK   89  A    between atoms: _229  and  _231
REMARK   90  A    between atoms: _231  and  _232
REMARK   91  A    between atoms: _231  and  _234
REMARK   92  A    between atoms: _234  and  _235
REMARK   93  A    between atoms: _241  and  _242
REMARK   94  A    between atoms: _247  and  _249
REMARK   95  A    between atoms: _249  and  _250
REMARK   96  A    between atoms: _249  and  _252
REMARK   97  A    between atoms: _252  and  _253
REMARK   98  A    between atoms: _258  and  _259
REMARK   99  A    between atoms: _261  and  _263
REMARK  100  A    between atoms: _263  and  _264
REMARK  101  A    between atoms: _263  and  _266
REMARK  102  A    between atoms: _266  and  _267
REMARK  103  A    between atoms: _270  and  _272
REMARK  104  A    between atoms: _272  and  _273
REMARK  105  A    between atoms: _272  and  _275
REMARK  106  A    between atoms: _275  and  _276
REMARK  107  A    between atoms: _281  and  _283
REMARK  108  A    between atoms: _283  and  _284
REMARK  109  A    between atoms: _283  and  _286
REMARK  110  A    between atoms: _286  and  _287
REMARK  111  A    between atoms: _292  and  _294
REMARK  112  A    between atoms: _294  and  _295
REMARK  113  A    between atoms: _294  and  _297
REMARK  114  A    between atoms: _297  and  _298
REMARK  115  A    between atoms: _301  and  _303
REMARK  116  A    between atoms: _303  and  _304
REMARK  117  A    between atoms: _303  and  _306
REMARK  118  A    between atoms: _309  and  _311
REMARK  119  A    between atoms: _311  and  _312
REMARK  120  A    between atoms: _311  and  _314
REMARK  121  A    between atoms: _314  and  _315
REMARK  122  A    between atoms: _319  and  _320
REMARK  123  A    between atoms: _325  and  _327
REMARK  124  A    between atoms: _327  and  _328
REMARK  125  A    between atoms: _327  and  _330
REMARK  126  A    between atoms: _330  and  _331
REMARK  127  A    between atoms: _331  and  _332
REMARK  128  A    between atoms: _335  and  _337
REMARK  129  A    between atoms: _337  and  _338
REMARK  130  A    between atoms: _341  and  _343
REMARK  131  A    between atoms: _343  and  _344
REMARK  132  A    between atoms: _343  and  _346
REMARK  133  A    between atoms: _346  and  _347
REMARK  134  A    between atoms: _350  and  _352
REMARK  135  A    between atoms: _352  and  _353
REMARK  136  A    between atoms: _352  and  _355
REMARK  137  A    between atoms: _355  and  _356
REMARK  138  A    between atoms: _356  and  _357
REMARK  139  A    between atoms: _360  and  _362
REMARK  140  A    between atoms: _362  and  _363
REMARK  141  A    between atoms: _362  and  _365
REMARK  142  A    between atoms: _365  and  _366
REMARK  143  A    between atoms: _366  and  _367
REMARK  144  A    between atoms: _369  and  _371
REMARK  145  A    between atoms: _371  and  _372
REMARK  146  A    between atoms: _375  and  _377
REMARK  147  A    between atoms: _377  and  _378
REMARK  148  A    between atoms: _377  and  _380
REMARK  149  A    between atoms: _380  and  _381
REMARK  150  A    between atoms: _386  and  _388
REMARK  151  A    between atoms: _388  and  _389
REMARK  152  A    between atoms: _391  and  _393
REMARK  153  A    between atoms: _393  and  _394
REMARK  154  A    between atoms: _393  and  _396
REMARK  155  A    between atoms: _399  and  _401
REMARK  156  A    between atoms: _401  and  _402
REMARK  157  A    between atoms: _405  and  _407
REMARK  158  A    between atoms: _407  and  _408
REMARK  159  A    between atoms: _407  and  _410
REMARK  160  A    between atoms: _410  and  _411
REMARK  161  A    between atoms: _416  and  _418
REMARK  162  A    between atoms: _418  and  _419
REMARK  163  A    between atoms: _418  and  _421
REMARK  164  A    between atoms: _421  and  _422
REMARK  165  A    between atoms: _428  and  _430
REMARK  166  A    between atoms: _430  and  _431
REMARK  167  A    between atoms: _430  and  _433
REMARK  168  A    between atoms: _433  and  _434
REMARK  169  A    between atoms: _434  and  _435
REMARK  170  A    between atoms: _435  and  _436
REMARK  171  A    between atoms: _436  and  _437
REMARK  172  A    between atoms: _441  and  _443
REMARK  173  A    between atoms: _443  and  _444
REMARK  174  A    between atoms: _443  and  _446
REMARK  175  A    between atoms: _446  and  _447
REMARK  176  A    between atoms: _450  and  _452
REMARK  177  A    between atoms: _452  and  _453
REMARK  178  A    between atoms: _452  and  _455
REMARK  179  A    between atoms: _455  and  _456
REMARK  180  A    between atoms: _461  and  _463
REMARK  181  A    between atoms: _463  and  _464
REMARK  182  A    between atoms: _466  and  _468
REMARK  183  A    between atoms: _468  and  _469
REMARK  184  A    between atoms: _468  and  _471
REMARK  185  A    between atoms: _471  and  _472
REMARK  186  A    between atoms: _475  and  _477
REMARK  187  A    between atoms: _477  and  _478
REMARK  188  A    between atoms: _477  and  _480
REMARK  189  A    between atoms: _480  and  _481
REMARK  190  A    between atoms: _481  and  _482
REMARK  191  A    between atoms: _482  and  _483
REMARK  192  A    between atoms: _483  and  _484
REMARK  193  A    between atoms: _488  and  _490
REMARK  194  A    between atoms: _490  and  _491
REMARK  195  A    between atoms: _490  and  _493
REMARK  196  A    between atoms: _493  and  _494
REMARK  197  A    between atoms: _494  and  _495
REMARK  198  A    between atoms: _495  and  _496
REMARK  199  A    between atoms: _505  and  _507
REMARK  200  A    between atoms: _507  and  _508
REMARK  201  A    between atoms: _507  and  _510
REMARK  202  A    between atoms: _510  and  _511
REMARK  203  A    between atoms: _516  and  _518
REMARK  204  A    between atoms: _518  and  _519
REMARK  205  A    between atoms: _518  and  _521
REMARK  206  A    between atoms: _521  and  _522
REMARK  207  A    between atoms: _527  and  _528
REMARK  208  A    between atoms: _530  and  _532
REMARK  209  A    between atoms: _532  and  _533
REMARK  210  A    between atoms: _532  and  _535
REMARK  211  A    between atoms: _535  and  _536
REMARK  212  A    between atoms: _536  and  _537
REMARK  213  A    between atoms: _537  and  _538
REMARK  214  A    between atoms: _538  and  _539
REMARK  215  A    between atoms: _543  and  _545
REMARK  216  A    between atoms: _545  and  _546
REMARK  217  A    between atoms: _545  and  _548
REMARK  218  A    between atoms: _548  and  _549
REMARK  219  A    between atoms: _551  and  _553
REMARK  220  A    between atoms: _553  and  _554
REMARK  221  A    between atoms: _553  and  _556
REMARK  222  A    between atoms: _556  and  _557
REMARK  223  A    between atoms: _560  and  _562
REMARK  224  A    between atoms: _562  and  _563
REMARK  225  A    between atoms: _562  and  _565
REMARK  226  A    between atoms: _565  and  _566
REMARK  227  A    between atoms: _566  and  _567
REMARK  228  A    between atoms: _570  and  _572
REMARK  229  A    between atoms: _572  and  _573
REMARK  230  A    between atoms: _576  and  _578
REMARK  231  A    between atoms: _578  and  _579
REMARK  232  A    between atoms: _578  and  _581
REMARK  233  A    between atoms: _581  and  _582
REMARK  234  A    between atoms: _584  and  _586
REMARK  235  A    between atoms: _586  and  _587
REMARK  236  A    between atoms: _589  and  _591
REMARK  237  A    between atoms: _591  and  _592
REMARK  238  A    between atoms: _591  and  _594
REMARK  239  A    between atoms: _594  and  _595
REMARK  240  A    between atoms: _598  and  _600
REMARK  241  A    between atoms: _600  and  _601
REMARK  242  A    between atoms: _603  and  _605
REMARK  243  A    between atoms: _605  and  _606
REMARK  244  A    between atoms: _605  and  _608
REMARK  245  A    between atoms: _608  and  _609
REMARK  246  A    between atoms: _614  and  _616
REMARK  247  A    between atoms: _616  and  _617
REMARK  248  A    between atoms: _616  and  _619
REMARK  249  A    between atoms: _619  and  _620
REMARK  250  A    between atoms: _620  and  _621
REMARK  251  A    between atoms: _628  and  _629
REMARK  252  A    between atoms: _629  and  _645
REMARK  253  A    between atoms: _630  and  _632
REMARK  254  A    between atoms: _632  and  _633
REMARK  255  A    between atoms: _633  and  _634
REMARK  256  A    between atoms: _638  and  _640
REMARK  257  A    between atoms: _640  and  _641
REMARK  258  A    between atoms: _640  and  _648
REMARK  259  A    between atoms: _641  and  _642
REMARK  260  A    between atoms: _642  and  _643
REMARK  261  A    between atoms: _643  and  _644
REMARK  262  A    between atoms: _644  and  _645
REMARK  263  A    between atoms: _650  and  _652
REMARK  264  A    between atoms: _652  and  _653
REMARK  265  A    between atoms: _652  and  _655
REMARK  266  A    between atoms: _655  and  _656
REMARK  267  A    between atoms: _659  and  _661
REMARK  268  A    between atoms: _661  and  _662
REMARK  269  A    between atoms: _664  and  _666
REMARK  270  A    between atoms: _666  and  _667
REMARK  271  A    between atoms: _670  and  _672
REMARK  272  A    between atoms: _672  and  _673
REMARK  273  A    between atoms: _672  and  _675
REMARK  274  A    between atoms: _675  and  _676
REMARK  275  A    between atoms: _679  and  _681
REMARK  276  A    between atoms: _681  and  _682
REMARK  277  A    between atoms: _681  and  _684
REMARK  278  A    between atoms: _684  and  _685
REMARK  279  A    between atoms: _690  and  _691
REMARK                            x       y       z     vdW  Elec       q    Type
REMARK                         _______ _______ _______ _____ _____    ______ ____
ROOT
ATOM      1  O   HOH     1      43.062  20.800  30.204  0.00  0.00    +0.000 OA
ENDROOT
TORSDOF 0
REMARK  Name = ../refined-set-2016/4eky/4eky_pocket.pdb
REMARK  279 active torsions:
REMARK  status: ('A' for Active; 'I' for Inactive)
REMARK    1  A    between atoms: _1  and  _3
REMARK    2  A    between atoms: _3  and  _4
REMARK    3  A    between atoms: _3  and  _6
REMARK    4  A    between atoms: _6  and  _7
REMARK    5  A    between atoms: _12  and  _13
REMARK    6  A    between atoms: _15  and  _17
REMARK    7  A    between atoms: _17  and  _18
REMARK    8  A    between atoms: _17  and  _20
REMARK    9  A    between atoms: _20  and  _21
REMARK   10  A    between atoms: _21  and  _22
REMARK   11  A    between atoms: _25  and  _27
REMARK   12  A    between atoms: _27  and  _28
REMARK   13  A    between atoms: _27  and  _30
REMARK   14  A    between atoms: _30  and  _31
REMARK   15  A    between atoms: _36  and  _37
REMARK   16  A    between atoms: _39  and  _41
REMARK   17  A    between atoms: _41  and  _42
REMARK   18  A    between atoms: _41  and  _44
REMARK   19  A    between atoms: _44  and  _45
REMARK   20  A    between atoms: _50  and  _52
REMARK   21  A    between atoms: _52  and  _53
REMARK   22  A    between atoms: _55  and  _57
REMARK   23  A    between atoms: _57  and  _58
REMARK   24  A    between atoms: _60  and  _62
REMARK   25  A    between atoms: _62  and  _63
REMARK   26  A    between atoms: _62  and  _65
REMARK   27  A    between atoms: _65  and  _66
REMARK   28  A    between atoms: _69  and  _71
REMARK   29  A    between atoms: _71  and  _72
REMARK   30  A    between atoms: _74  and  _76
REMARK   31  A    between atoms: _76  and  _77
REMARK   32  A    between atoms: _76  and  _79
REMARK   33  A    between atoms: _79  and  _80
REMARK   34  A    between atoms: _80  and  _81
REMARK   35  A    between atoms: _81  and  _82
REMARK   36  A    between atoms: _91  and  _93
REMARK   37  A    between atoms: _93  and  _94
REMARK   38  A    between atoms: _93  and  _96
REMARK   39  A    between atoms: _96  and  _97
REMARK   40  A    between atoms: _100  and  _102
REMARK   41  A    between atoms: _102  and  _103
REMARK   42  A    between atoms: _106  and  _108
REMARK   43  A    between atoms: _108  and  _109
REMARK   44  A    between atoms: _108  and  _111
REMARK   45  A    between atoms: _111  and  _112
REMARK   46  A    between atoms: _118  and  _120
REMARK   47  A    between atoms: _120  and  _121
REMARK   48  A    between atoms: _120  and  _123
REMARK   49  A    between atoms: _123  and  _124
REMARK   50  A    between atoms: _129  and  _131
REMARK   51  A    between atoms: _131  and  _132
REMARK   52  A    between atoms: _131  and  _134
REMARK   53  A    between atoms: _134  and  _135
REMARK   54  A    between atoms: _138  and  _140
REMARK   55  A    between atoms: _140  and  _141
REMARK   56  A    between atoms: _140  and  _143
REMARK   57  A    between atoms: _143  and  _144
REMARK   58  A    between atoms: _149  and  _151
REMARK   59  A    between atoms: _151  and  _152
REMARK   60  A    between atoms: _151  and  _154
REMARK   61  A    between atoms: _154  and  _155
REMARK   62  A    between atoms: _161  and  _163
REMARK   63  A    between atoms: _163  and  _164
REMARK   64  A    between atoms: _163  and  _166
REMARK   65  A    between atoms: _166  and  _167
REMARK   66  A    between atoms: _173  and  _175
REMARK   67  A    between atoms: _175  and  _176
REMARK   68  A    between atoms: _175  and  _178
REMARK   69  A    between atoms: _178  and  _179
REMARK   70  A    between atoms: _179  and  _180
REMARK   71  A    between atoms: _180  and  _181
REMARK   72  A    between atoms: _190  and  _192
REMARK   73  A    between atoms: _192  and  _193
REMARK   74  A    between atoms: _192  and  _195
REMARK   75  A    between atoms: _195  and  _196
REMARK   76  A    between atoms: _196  and  _197
REMARK   77  A    between atoms: _200  and  _202
REMARK   78  A    between atoms: _202  and  _203
REMARK   79  A    between atoms: _202  and  _205
REMARK   80  A    between atoms: _205  and  _206
REMARK   81  A    between atoms: _211  and  _213
REMARK   82  A    between atoms: _213  and  _214
REMARK   83  A    between atoms: _213  and  _216
REMARK   84  A    between atoms: _216  and  _217
REMARK   85  A    between atoms: _220  and  _222
REMARK   86  A    between atoms: _222  and  _223
REMARK   87  A    between atoms: _222  and  _225
REMARK   88  A    between atoms: _225  and  _226
REMARK   89  A    between atoms: _229  and  _231
REMARK   90  A    between atoms: _231  and  _232
REMARK   91  A    between atoms: _231  and  _234
REMARK   92  A    between atoms: _234  and  _235
REMARK   93  A    between atoms: _241  and  _242
REMARK   94  A    between atoms: _247  and  _249
REMARK   95  A    between atoms: _249  and  _250
REMARK   96  A    between atoms: _249  and  _252
REMARK   97  A    between atoms: _252  and  _253
REMARK   98  A    between atoms: _258  and  _259
REMARK   99  A    between atoms: _261  and  _263
REMARK  100  A    between atoms: _263  and  _264
REMARK  101  A    between atoms: _263  and  _266
REMARK  102  A    between atoms: _266  and  _267
REMARK  103  A    between atoms: _270  and  _272
REMARK  104  A    between atoms: _272  and  _273
REMARK  105  A    between atoms: _272  and  _275
REMARK  106  A    between atoms: _275  and  _276
REMARK  107  A    between atoms: _281  and  _283
REMARK  108  A    between atoms: _283  and  _284
REMARK  109  A    between atoms: _283  and  _286
REMARK  110  A    between atoms: _286  and  _287
REMARK  111  A    between atoms: _292  and  _294
REMARK  112  A    between atoms: _294  and  _295
REMARK  113  A    between atoms: _294  and  _297
REMARK  114  A    between atoms: _297  and  _298
REMARK  115  A    between atoms: _301  and  _303
REMARK  116  A    between atoms: _303  and  _304
REMARK  117  A    between atoms: _303  and  _306
REMARK  118  A    between atoms: _309  and  _311
REMARK  119  A    between atoms: _311  and  _312
REMARK  120  A    between atoms: _311  and  _314
REMARK  121  A    between atoms: _314  and  _315
REMARK  122  A    between atoms: _319  and  _320
REMARK  123  A    between atoms: _325  and  _327
REMARK  124  A    between atoms: _327  and  _328
REMARK  125  A    between atoms: _327  and  _330
REMARK  126  A    between atoms: _330  and  _331
REMARK  127  A    between atoms: _331  and  _332
REMARK  128  A    between atoms: _335  and  _337
REMARK  129  A    between atoms: _337  and  _338
REMARK  130  A    between atoms: _341  and  _343
REMARK  131  A    between atoms: _343  and  _344
REMARK  132  A    between atoms: _343  and  _346
REMARK  133  A    between atoms: _346  and  _347
REMARK  134  A    between atoms: _350  and  _352
REMARK  135  A    between atoms: _352  and  _353
REMARK  136  A    between atoms: _352  and  _355
REMARK  137  A    between atoms: _355  and  _356
REMARK  138  A    between atoms: _356  and  _357
REMARK  139  A    between atoms: _360  and  _362
REMARK  140  A    between atoms: _362  and  _363
REMARK  141  A    between atoms: _362  and  _365
REMARK  142  A    between atoms: _365  and  _366
REMARK  143  A    between atoms: _366  and  _367
REMARK  144  A    between atoms: _369  and  _371
REMARK  145  A    between atoms: _371  and  _372
REMARK  146  A    between atoms: _375  and  _377
REMARK  147  A    between atoms: _377  and  _378
REMARK  148  A    between atoms: _377  and  _380
REMARK  149  A    between atoms: _380  and  _381
REMARK  150  A    between atoms: _386  and  _388
REMARK  151  A    between atoms: _388  and  _389
REMARK  152  A    between atoms: _391  and  _393
REMARK  153  A    between atoms: _393  and  _394
REMARK  154  A    between atoms: _393  and  _396
REMARK  155  A    between atoms: _399  and  _401
REMARK  156  A    between atoms: _401  and  _402
REMARK  157  A    between atoms: _405  and  _407
REMARK  158  A    between atoms: _407  and  _408
REMARK  159  A    between atoms: _407  and  _410
REMARK  160  A    between atoms: _410  and  _411
REMARK  161  A    between atoms: _416  and  _418
REMARK  162  A    between atoms: _418  and  _419
REMARK  163  A    between atoms: _418  and  _421
REMARK  164  A    between atoms: _421  and  _422
REMARK  165  A    between atoms: _428  and  _430
REMARK  166  A    between atoms: _430  and  _431
REMARK  167  A    between atoms: _430  and  _433
REMARK  168  A    between atoms: _433  and  _434
REMARK  169  A    between atoms: _434  and  _435
REMARK  170  A    between atoms: _435  and  _436
REMARK  171  A    between atoms: _436  and  _437
REMARK  172  A    between atoms: _441  and  _443
REMARK  173  A    between atoms: _443  and  _444
REMARK  174  A    between atoms: _443  and  _446
REMARK  175  A    between atoms: _446  and  _447
REMARK  176  A    between atoms: _450  and  _452
REMARK  177  A    between atoms: _452  and  _453
REMARK  178  A    between atoms: _452  and  _455
REMARK  179  A    between atoms: _455  and  _456
REMARK  180  A    between atoms: _461  and  _463
REMARK  181  A    between atoms: _463  and  _464
REMARK  182  A    between atoms: _466  and  _468
REMARK  183  A    between atoms: _468  and  _469
REMARK  184  A    between atoms: _468  and  _471
REMARK  185  A    between atoms: _471  and  _472
REMARK  186  A    between atoms: _475  and  _477
REMARK  187  A    between atoms: _477  and  _478
REMARK  188  A    between atoms: _477  and  _480
REMARK  189  A    between atoms: _480  and  _481
REMARK  190  A    between atoms: _481  and  _482
REMARK  191  A    between atoms: _482  and  _483
REMARK  192  A    between atoms: _483  and  _484
REMARK  193  A    between atoms: _488  and  _490
REMARK  194  A    between atoms: _490  and  _491
REMARK  195  A    between atoms: _490  and  _493
REMARK  196  A    between atoms: _493  and  _494
REMARK  197  A    between atoms: _494  and  _495
REMARK  198  A    between atoms: _495  and  _496
REMARK  199  A    between atoms: _505  and  _507
REMARK  200  A    between atoms: _507  and  _508
REMARK  201  A    between atoms: _507  and  _510
REMARK  202  A    between atoms: _510  and  _511
REMARK  203  A    between atoms: _516  and  _518
REMARK  204  A    between atoms: _518  and  _519
REMARK  205  A    between atoms: _518  and  _521
REMARK  206  A    between atoms: _521  and  _522
REMARK  207  A    between atoms: _527  and  _528
REMARK  208  A    between atoms: _530  and  _532
REMARK  209  A    between atoms: _532  and  _533
REMARK  210  A    between atoms: _532  and  _535
REMARK  211  A    between atoms: _535  and  _536
REMARK  212  A    between atoms: _536  and  _537
REMARK  213  A    between atoms: _537  and  _538
REMARK  214  A    between atoms: _538  and  _539
REMARK  215  A    between atoms: _543  and  _545
REMARK  216  A    between atoms: _545  and  _546
REMARK  217  A    between atoms: _545  and  _548
REMARK  218  A    between atoms: _548  and  _549
REMARK  219  A    between atoms: _551  and  _553
REMARK  220  A    between atoms: _553  and  _554
REMARK  221  A    between atoms: _553  and  _556
REMARK  222  A    between atoms: _556  and  _557
REMARK  223  A    between atoms: _560  and  _562
REMARK  224  A    between atoms: _562  and  _563
REMARK  225  A    between atoms: _562  and  _565
REMARK  226  A    between atoms: _565  and  _566
REMARK  227  A    between atoms: _566  and  _567
REMARK  228  A    between atoms: _570  and  _572
REMARK  229  A    between atoms: _572  and  _573
REMARK  230  A    between atoms: _576  and  _578
REMARK  231  A    between atoms: _578  and  _579
REMARK  232  A    between atoms: _578  and  _581
REMARK  233  A    between atoms: _581  and  _582
REMARK  234  A    between atoms: _584  and  _586
REMARK  235  A    between atoms: _586  and  _587
REMARK  236  A    between atoms: _589  and  _591
REMARK  237  A    between atoms: _591  and  _592
REMARK  238  A    between atoms: _591  and  _594
REMARK  239  A    between atoms: _594  and  _595
REMARK  240  A    between atoms: _598  and  _600
REMARK  241  A    between atoms: _600  and  _601
REMARK  242  A    between atoms: _603  and  _605
REMARK  243  A    between atoms: _605  and  _606
REMARK  244  A    between atoms: _605  and  _608
REMARK  245  A    between atoms: _608  and  _609
REMARK  246  A    between atoms: _614  and  _616
REMARK  247  A    between atoms: _616  and  _617
REMARK  248  A    between atoms: _616  and  _619
REMARK  249  A    between atoms: _619  and  _620
REMARK  250  A    between atoms: _620  and  _621
REMARK  251  A    between atoms: _628  and  _629
REMARK  252  A    between atoms: _629  and  _645
REMARK  253  A    between atoms: _630  and  _632
REMARK  254  A    between atoms: _632  and  _633
REMARK  255  A    between atoms: _633  and  _634
REMARK  256  A    between atoms: _638  and  _640
REMARK  257  A    between atoms: _640  and  _641
REMARK  258  A    between atoms: _640  and  _648
REMARK  259  A    between atoms: _641  and  _642
REMARK  260  A    between atoms: _642  and  _643
REMARK  261  A    between atoms: _643  and  _644
REMARK  262  A    between atoms: _644  and  _645
REMARK  263  A    between atoms: _650  and  _652
REMARK  264  A    between atoms: _652  and  _653
REMARK  265  A    between atoms: _652  and  _655
REMARK  266  A    between atoms: _655  and  _656
REMARK  267  A    between atoms: _659  and  _661
REMARK  268  A    between atoms: _661  and  _662
REMARK  269  A    between atoms: _664  and  _666
REMARK  270  A    between atoms: _666  and  _667
REMARK  271  A    between atoms: _670  and  _672
REMARK  272  A    between atoms: _672  and  _673
REMARK  273  A    between atoms: _672  and  _675
REMARK  274  A    between atoms: _675  and  _676
REMARK  275  A    between atoms: _679  and  _681
REMARK  276  A    between atoms: _681  and  _682
REMARK  277  A    between atoms: _681  and  _684
REMARK  278  A    between atoms: _684  and  _685
REMARK  279  A    between atoms: _690  and  _691
REMARK                            x       y       z     vdW  Elec       q    Type
REMARK                         _______ _______ _______ _____ _____    ______ ____
ROOT
ATOM      1  O   HOH     1      38.672  24.000  22.260  0.00  0.00    +0.000 OA
ENDROOT
TORSDOF 0
REMARK  Name = ../refined-set-2016/4eky/4eky_pocket.pdb
REMARK  279 active torsions:
REMARK  status: ('A' for Active; 'I' for Inactive)
REMARK    1  A    between atoms: _1  and  _3
REMARK    2  A    between atoms: _3  and  _4
REMARK    3  A    between atoms: _3  and  _6
REMARK    4  A    between atoms: _6  and  _7
REMARK    5  A    between atoms: _12  and  _13
REMARK    6  A    between atoms: _15  and  _17
REMARK    7  A    between atoms: _17  and  _18
REMARK    8  A    between atoms: _17  and  _20
REMARK    9  A    between atoms: _20  and  _21
REMARK   10  A    between atoms: _21  and  _22
REMARK   11  A    between atoms: _25  and  _27
REMARK   12  A    between atoms: _27  and  _28
REMARK   13  A    between atoms: _27  and  _30
REMARK   14  A    between atoms: _30  and  _31
REMARK   15  A    between atoms: _36  and  _37
REMARK   16  A    between atoms: _39  and  _41
REMARK   17  A    between atoms: _41  and  _42
REMARK   18  A    between atoms: _41  and  _44
REMARK   19  A    between atoms: _44  and  _45
REMARK   20  A    between atoms: _50  and  _52
REMARK   21  A    between atoms: _52  and  _53
REMARK   22  A    between atoms: _55  and  _57
REMARK   23  A    between atoms: _57  and  _58
REMARK   24  A    between atoms: _60  and  _62
REMARK   25  A    between atoms: _62  and  _63
REMARK   26  A    between atoms: _62  and  _65
REMARK   27  A    between atoms: _65  and  _66
REMARK   28  A    between atoms: _69  and  _71
REMARK   29  A    between atoms: _71  and  _72
REMARK   30  A    between atoms: _74  and  _76
REMARK   31  A    between atoms: _76  and  _77
REMARK   32  A    between atoms: _76  and  _79
REMARK   33  A    between atoms: _79  and  _80
REMARK   34  A    between atoms: _80  and  _81
REMARK   35  A    between atoms: _81  and  _82
REMARK   36  A    between atoms: _91  and  _93
REMARK   37  A    between atoms: _93  and  _94
REMARK   38  A    between atoms: _93  and  _96
REMARK   39  A    between atoms: _96  and  _97
REMARK   40  A    between atoms: _100  and  _102
REMARK   41  A    between atoms: _102  and  _103
REMARK   42  A    between atoms: _106  and  _108
REMARK   43  A    between atoms: _108  and  _109
REMARK   44  A    between atoms: _108  and  _111
REMARK   45  A    between atoms: _111  and  _112
REMARK   46  A    between atoms: _118  and  _120
REMARK   47  A    between atoms: _120  and  _121
REMARK   48  A    between atoms: _120  and  _123
REMARK   49  A    between atoms: _123  and  _124
REMARK   50  A    between atoms: _129  and  _131
REMARK   51  A    between atoms: _131  and  _132
REMARK   52  A    between atoms: _131  and  _134
REMARK   53  A    between atoms: _134  and  _135
REMARK   54  A    between atoms: _138  and  _140
REMARK   55  A    between atoms: _140  and  _141
REMARK   56  A    between atoms: _140  and  _143
REMARK   57  A    between atoms: _143  and  _144
REMARK   58  A    between atoms: _149  and  _151
REMARK   59  A    between atoms: _151  and  _152
REMARK   60  A    between atoms: _151  and  _154
REMARK   61  A    between atoms: _154  and  _155
REMARK   62  A    between atoms: _161  and  _163
REMARK   63  A    between atoms: _163  and  _164
REMARK   64  A    between atoms: _163  and  _166
REMARK   65  A    between atoms: _166  and  _167
REMARK   66  A    between atoms: _173  and  _175
REMARK   67  A    between atoms: _175  and  _176
REMARK   68  A    between atoms: _175  and  _178
REMARK   69  A    between atoms: _178  and  _179
REMARK   70  A    between atoms: _179  and  _180
REMARK   71  A    between atoms: _180  and  _181
REMARK   72  A    between atoms: _190  and  _192
REMARK   73  A    between atoms: _192  and  _193
REMARK   74  A    between atoms: _192  and  _195
REMARK   75  A    between atoms: _195  and  _196
REMARK   76  A    between atoms: _196  and  _197
REMARK   77  A    between atoms: _200  and  _202
REMARK   78  A    between atoms: _202  and  _203
REMARK   79  A    between atoms: _202  and  _205
REMARK   80  A    between atoms: _205  and  _206
REMARK   81  A    between atoms: _211  and  _213
REMARK   82  A    between atoms: _213  and  _214
REMARK   83  A    between atoms: _213  and  _216
REMARK   84  A    between atoms: _216  and  _217
REMARK   85  A    between atoms: _220  and  _222
REMARK   86  A    between atoms: _222  and  _223
REMARK   87  A    between atoms: _222  and  _225
REMARK   88  A    between atoms: _225  and  _226
REMARK   89  A    between atoms: _229  and  _231
REMARK   90  A    between atoms: _231  and  _232
REMARK   91  A    between atoms: _231  and  _234
REMARK   92  A    between atoms: _234  and  _235
REMARK   93  A    between atoms: _241  and  _242
REMARK   94  A    between atoms: _247  and  _249
REMARK   95  A    between atoms: _249  and  _250
REMARK   96  A    between atoms: _249  and  _252
REMARK   97  A    between atoms: _252  and  _253
REMARK   98  A    between atoms: _258  and  _259
REMARK   99  A    between atoms: _261  and  _263
REMARK  100  A    between atoms: _263  and  _264
REMARK  101  A    between atoms: _263  and  _266
REMARK  102  A    between atoms: _266  and  _267
REMARK  103  A    between atoms: _270  and  _272
REMARK  104  A    between atoms: _272  and  _273
REMARK  105  A    between atoms: _272  and  _275
REMARK  106  A    between atoms: _275  and  _276
REMARK  107  A    between atoms: _281  and  _283
REMARK  108  A    between atoms: _283  and  _284
REMARK  109  A    between atoms: _283  and  _286
REMARK  110  A    between atoms: _286  and  _287
REMARK  111  A    between atoms: _292  and  _294
REMARK  112  A    between atoms: _294  and  _295
REMARK  113  A    between atoms: _294  and  _297
REMARK  114  A    between atoms: _297  and  _298
REMARK  115  A    between atoms: _301  and  _303
REMARK  116  A    between atoms: _303  and  _304
REMARK  117  A    between atoms: _303  and  _306
REMARK  118  A    between atoms: _309  and  _311
REMARK  119  A    between atoms: _311  and  _312
REMARK  120  A    between atoms: _311  and  _314
REMARK  121  A    between atoms: _314  and  _315
REMARK  122  A    between atoms: _319  and  _320
REMARK  123  A    between atoms: _325  and  _327
REMARK  124  A    between atoms: _327  and  _328
REMARK  125  A    between atoms: _327  and  _330
REMARK  126  A    between atoms: _330  and  _331
REMARK  127  A    between atoms: _331  and  _332
REMARK  128  A    between atoms: _335  and  _337
REMARK  129  A    between atoms: _337  and  _338
REMARK  130  A    between atoms: _341  and  _343
REMARK  131  A    between atoms: _343  and  _344
REMARK  132  A    between atoms: _343  and  _346
REMARK  133  A    between atoms: _346  and  _347
REMARK  134  A    between atoms: _350  and  _352
REMARK  135  A    between atoms: _352  and  _353
REMARK  136  A    between atoms: _352  and  _355
REMARK  137  A    between atoms: _355  and  _356
REMARK  138  A    between atoms: _356  and  _357
REMARK  139  A    between atoms: _360  and  _362
REMARK  140  A    between atoms: _362  and  _363
REMARK  141  A    between atoms: _362  and  _365
REMARK  142  A    between atoms: _365  and  _366
REMARK  143  A    between atoms: _366  and  _367
REMARK  144  A    between atoms: _369  and  _371
REMARK  145  A    between atoms: _371  and  _372
REMARK  146  A    between atoms: _375  and  _377
REMARK  147  A    between atoms: _377  and  _378
REMARK  148  A    between atoms: _377  and  _380
REMARK  149  A    between atoms: _380  and  _381
REMARK  150  A    between atoms: _386  and  _388
REMARK  151  A    between atoms: _388  and  _389
REMARK  152  A    between atoms: _391  and  _393
REMARK  153  A    between atoms: _393  and  _394
REMARK  154  A    between atoms: _393  and  _396
REMARK  155  A    between atoms: _399  and  _401
REMARK  156  A    between atoms: _401  and  _402
REMARK  157  A    between atoms: _405  and  _407
REMARK  158  A    between atoms: _407  and  _408
REMARK  159  A    between atoms: _407  and  _410
REMARK  160  A    between atoms: _410  and  _411
REMARK  161  A    between atoms: _416  and  _418
REMARK  162  A    between atoms: _418  and  _419
REMARK  163  A    between atoms: _418  and  _421
REMARK  164  A    between atoms: _421  and  _422
REMARK  165  A    between atoms: _428  and  _430
REMARK  166  A    between atoms: _430  and  _431
REMARK  167  A    between atoms: _430  and  _433
REMARK  168  A    between atoms: _433  and  _434
REMARK  169  A    between atoms: _434  and  _435
REMARK  170  A    between atoms: _435  and  _436
REMARK  171  A    between atoms: _436  and  _437
REMARK  172  A    between atoms: _441  and  _443
REMARK  173  A    between atoms: _443  and  _444
REMARK  174  A    between atoms: _443  and  _446
REMARK  175  A    between atoms: _446  and  _447
REMARK  176  A    between atoms: _450  and  _452
REMARK  177  A    between atoms: _452  and  _453
REMARK  178  A    between atoms: _452  and  _455
REMARK  179  A    between atoms: _455  and  _456
REMARK  180  A    between atoms: _461  and  _463
REMARK  181  A    between atoms: _463  and  _464
REMARK  182  A    between atoms: _466  and  _468
REMARK  183  A    between atoms: _468  and  _469
REMARK  184  A    between atoms: _468  and  _471
REMARK  185  A    between atoms: _471  and  _472
REMARK  186  A    between atoms: _475  and  _477
REMARK  187  A    between atoms: _477  and  _478
REMARK  188  A    between atoms: _477  and  _480
REMARK  189  A    between atoms: _480  and  _481
REMARK  190  A    between atoms: _481  and  _482
REMARK  191  A    between atoms: _482  and  _483
REMARK  192  A    between atoms: _483  and  _484
REMARK  193  A    between atoms: _488  and  _490
REMARK  194  A    between atoms: _490  and  _491
REMARK  195  A    between atoms: _490  and  _493
REMARK  196  A    between atoms: _493  and  _494
REMARK  197  A    between atoms: _494  and  _495
REMARK  198  A    between atoms: _495  and  _496
REMARK  199  A    between atoms: _505  and  _507
REMARK  200  A    between atoms: _507  and  _508
REMARK  201  A    between atoms: _507  and  _510
REMARK  202  A    between atoms: _510  and  _511
REMARK  203  A    between atoms: _516  and  _518
REMARK  204  A    between atoms: _518  and  _519
REMARK  205  A    between atoms: _518  and  _521
REMARK  206  A    between atoms: _521  and  _522
REMARK  207  A    between atoms: _527  and  _528
REMARK  208  A    between atoms: _530  and  _532
REMARK  209  A    between atoms: _532  and  _533
REMARK  210  A    between atoms: _532  and  _535
REMARK  211  A    between atoms: _535  and  _536
REMARK  212  A    between atoms: _536  and  _537
REMARK  213  A    between atoms: _537  and  _538
REMARK  214  A    between atoms: _538  and  _539
REMARK  215  A    between atoms: _543  and  _545
REMARK  216  A    between atoms: _545  and  _546
REMARK  217  A    between atoms: _545  and  _548
REMARK  218  A    between atoms: _548  and  _549
REMARK  219  A    between atoms: _551  and  _553
REMARK  220  A    between atoms: _553  and  _554
REMARK  221  A    between atoms: _553  and  _556
REMARK  222  A    between atoms: _556  and  _557
REMARK  223  A    between atoms: _560  and  _562
REMARK  224  A    between atoms: _562  and  _563
REMARK  225  A    between atoms: _562  and  _565
REMARK  226  A    between atoms: _565  and  _566
REMARK  227  A    between atoms: _566  and  _567
REMARK  228  A    between atoms: _570  and  _572
REMARK  229  A    between atoms: _572  and  _573
REMARK  230  A    between atoms: _576  and  _578
REMARK  231  A    between atoms: _578  and  _579
REMARK  232  A    between atoms: _578  and  _581
REMARK  233  A    between atoms: _581  and  _582
REMARK  234  A    between atoms: _584  and  _586
REMARK  235  A    between atoms: _586  and  _587
REMARK  236  A    between atoms: _589  and  _591
REMARK  237  A    between atoms: _591  and  _592
REMARK  238  A    between atoms: _591  and  _594
REMARK  239  A    between atoms: _594  and  _595
REMARK  240  A    between atoms: _598  and  _600
REMARK  241  A    between atoms: _600  and  _601
REMARK  242  A    between atoms: _603  and  _605
REMARK  243  A    between atoms: _605  and  _606
REMARK  244  A    between atoms: _605  and  _608
REMARK  245  A    between atoms: _608  and  _609
REMARK  246  A    between atoms: _614  and  _616
REMARK  247  A    between atoms: _616  and  _617
REMARK  248  A    between atoms: _616  and  _619
REMARK  249  A    between atoms: _619  and  _620
REMARK  250  A    between atoms: _620  and  _621
REMARK  251  A    between atoms: _628  and  _629
REMARK  252  A    between atoms: _629  and  _645
REMARK  253  A    between atoms: _630  and  _632
REMARK  254  A    between atoms: _632  and  _633
REMARK  255  A    between atoms: _633  and  _634
REMARK  256  A    between atoms: _638  and  _640
REMARK  257  A    between atoms: _640  and  _641
REMARK  258  A    between atoms: _640  and  _648
REMARK  259  A    between atoms: _641  and  _642
REMARK  260  A    between atoms: _642  and  _643
REMARK  261  A    between atoms: _643  and  _644
REMARK  262  A    between atoms: _644  and  _645
REMARK  263  A    between atoms: _650  and  _652
REMARK  264  A    between atoms: _652  and  _653
REMARK  265  A    between atoms: _652  and  _655
REMARK  266  A    between atoms: _655  and  _656
REMARK  267  A    between atoms: _659  and  _661
REMARK  268  A    between atoms: _661  and  _662
REMARK  269  A    between atoms: _664  and  _666
REMARK  270  A    between atoms: _666  and  _667
REMARK  271  A    between atoms: _670  and  _672
REMARK  272  A    between atoms: _672  and  _673
REMARK  273  A    between atoms: _672  and  _675
REMARK  274  A    between atoms: _675  and  _676
REMARK  275  A    between atoms: _679  and  _681
REMARK  276  A    between atoms: _681  and  _682
REMARK  277  A    between atoms: _681  and  _684
REMARK  278  A    between atoms: _684  and  _685
REMARK  279  A    between atoms: _690  and  _691
REMARK                            x       y       z     vdW  Elec       q    Type
REMARK                         _______ _______ _______ _____ _____    ______ ____
ROOT
ATOM      1  O   HOH     1      45.287  21.944  38.637  0.00  0.00    +0.000 OA
ENDROOT
TORSDOF 0
REMARK  Name = ../refined-set-2016/4eky/4eky_pocket.pdb
REMARK  279 active torsions:
REMARK  status: ('A' for Active; 'I' for Inactive)
REMARK    1  A    between atoms: _1  and  _3
REMARK    2  A    between atoms: _3  and  _4
REMARK    3  A    between atoms: _3  and  _6
REMARK    4  A    between atoms: _6  and  _7
REMARK    5  A    between atoms: _12  and  _13
REMARK    6  A    between atoms: _15  and  _17
REMARK    7  A    between atoms: _17  and  _18
REMARK    8  A    between atoms: _17  and  _20
REMARK    9  A    between atoms: _20  and  _21
REMARK   10  A    between atoms: _21  and  _22
REMARK   11  A    between atoms: _25  and  _27
REMARK   12  A    between atoms: _27  and  _28
REMARK   13  A    between atoms: _27  and  _30
REMARK   14  A    between atoms: _30  and  _31
REMARK   15  A    between atoms: _36  and  _37
REMARK   16  A    between atoms: _39  and  _41
REMARK   17  A    between atoms: _41  and  _42
REMARK   18  A    between atoms: _41  and  _44
REMARK   19  A    between atoms: _44  and  _45
REMARK   20  A    between atoms: _50  and  _52
REMARK   21  A    between atoms: _52  and  _53
REMARK   22  A    between atoms: _55  and  _57
REMARK   23  A    between atoms: _57  and  _58
REMARK   24  A    between atoms: _60  and  _62
REMARK   25  A    between atoms: _62  and  _63
REMARK   26  A    between atoms: _62  and  _65
REMARK   27  A    between atoms: _65  and  _66
REMARK   28  A    between atoms: _69  and  _71
REMARK   29  A    between atoms: _71  and  _72
REMARK   30  A    between atoms: _74  and  _76
REMARK   31  A    between atoms: _76  and  _77
REMARK   32  A    between atoms: _76  and  _79
REMARK   33  A    between atoms: _79  and  _80
REMARK   34  A    between atoms: _80  and  _81
REMARK   35  A    between atoms: _81  and  _82
REMARK   36  A    between atoms: _91  and  _93
REMARK   37  A    between atoms: _93  and  _94
REMARK   38  A    between atoms: _93  and  _96
REMARK   39  A    between atoms: _96  and  _97
REMARK   40  A    between atoms: _100  and  _102
REMARK   41  A    between atoms: _102  and  _103
REMARK   42  A    between atoms: _106  and  _108
REMARK   43  A    between atoms: _108  and  _109
REMARK   44  A    between atoms: _108  and  _111
REMARK   45  A    between atoms: _111  and  _112
REMARK   46  A    between atoms: _118  and  _120
REMARK   47  A    between atoms: _120  and  _121
REMARK   48  A    between atoms: _120  and  _123
REMARK   49  A    between atoms: _123  and  _124
REMARK   50  A    between atoms: _129  and  _131
REMARK   51  A    between atoms: _131  and  _132
REMARK   52  A    between atoms: _131  and  _134
REMARK   53  A    between atoms: _134  and  _135
REMARK   54  A    between atoms: _138  and  _140
REMARK   55  A    between atoms: _140  and  _141
REMARK   56  A    between atoms: _140  and  _143
REMARK   57  A    between atoms: _143  and  _144
REMARK   58  A    between atoms: _149  and  _151
REMARK   59  A    between atoms: _151  and  _152
REMARK   60  A    between atoms: _151  and  _154
REMARK   61  A    between atoms: _154  and  _155
REMARK   62  A    between atoms: _161  and  _163
REMARK   63  A    between atoms: _163  and  _164
REMARK   64  A    between atoms: _163  and  _166
REMARK   65  A    between atoms: _166  and  _167
REMARK   66  A    between atoms: _173  and  _175
REMARK   67  A    between atoms: _175  and  _176
REMARK   68  A    between atoms: _175  and  _178
REMARK   69  A    between atoms: _178  and  _179
REMARK   70  A    between atoms: _179  and  _180
REMARK   71  A    between atoms: _180  and  _181
REMARK   72  A    between atoms: _190  and  _192
REMARK   73  A    between atoms: _192  and  _193
REMARK   74  A    between atoms: _192  and  _195
REMARK   75  A    between atoms: _195  and  _196
REMARK   76  A    between atoms: _196  and  _197
REMARK   77  A    between atoms: _200  and  _202
REMARK   78  A    between atoms: _202  and  _203
REMARK   79  A    between atoms: _202  and  _205
REMARK   80  A    between atoms: _205  and  _206
REMARK   81  A    between atoms: _211  and  _213
REMARK   82  A    between atoms: _213  and  _214
REMARK   83  A    between atoms: _213  and  _216
REMARK   84  A    between atoms: _216  and  _217
REMARK   85  A    between atoms: _220  and  _222
REMARK   86  A    between atoms: _222  and  _223
REMARK   87  A    between atoms: _222  and  _225
REMARK   88  A    between atoms: _225  and  _226
REMARK   89  A    between atoms: _229  and  _231
REMARK   90  A    between atoms: _231  and  _232
REMARK   91  A    between atoms: _231  and  _234
REMARK   92  A    between atoms: _234  and  _235
REMARK   93  A    between atoms: _241  and  _242
REMARK   94  A    between atoms: _247  and  _249
REMARK   95  A    between atoms: _249  and  _250
REMARK   96  A    between atoms: _249  and  _252
REMARK   97  A    between atoms: _252  and  _253
REMARK   98  A    between atoms: _258  and  _259
REMARK   99  A    between atoms: _261  and  _263
REMARK  100  A    between atoms: _263  and  _264
REMARK  101  A    between atoms: _263  and  _266
REMARK  102  A    between atoms: _266  and  _267
REMARK  103  A    between atoms: _270  and  _272
REMARK  104  A    between atoms: _272  and  _273
REMARK  105  A    between atoms: _272  and  _275
REMARK  106  A    between atoms: _275  and  _276
REMARK  107  A    between atoms: _281  and  _283
REMARK  108  A    between atoms: _283  and  _284
REMARK  109  A    between atoms: _283  and  _286
REMARK  110  A    between atoms: _286  and  _287
REMARK  111  A    between atoms: _292  and  _294
REMARK  112  A    between atoms: _294  and  _295
REMARK  113  A    between atoms: _294  and  _297
REMARK  114  A    between atoms: _297  and  _298
REMARK  115  A    between atoms: _301  and  _303
REMARK  116  A    between atoms: _303  and  _304
REMARK  117  A    between atoms: _303  and  _306
REMARK  118  A    between atoms: _309  and  _311
REMARK  119  A    between atoms: _311  and  _312
REMARK  120  A    between atoms: _311  and  _314
REMARK  121  A    between atoms: _314  and  _315
REMARK  122  A    between atoms: _319  and  _320
REMARK  123  A    between atoms: _325  and  _327
REMARK  124  A    between atoms: _327  and  _328
REMARK  125  A    between atoms: _327  and  _330
REMARK  126  A    between atoms: _330  and  _331
REMARK  127  A    between atoms: _331  and  _332
REMARK  128  A    between atoms: _335  and  _337
REMARK  129  A    between atoms: _337  and  _338
REMARK  130  A    between atoms: _341  and  _343
REMARK  131  A    between atoms: _343  and  _344
REMARK  132  A    between atoms: _343  and  _346
REMARK  133  A    between atoms: _346  and  _347
REMARK  134  A    between atoms: _350  and  _352
REMARK  135  A    between atoms: _352  and  _353
REMARK  136  A    between atoms: _352  and  _355
REMARK  137  A    between atoms: _355  and  _356
REMARK  138  A    between atoms: _356  and  _357
REMARK  139  A    between atoms: _360  and  _362
REMARK  140  A    between atoms: _362  and  _363
REMARK  141  A    between atoms: _362  and  _365
REMARK  142  A    between atoms: _365  and  _366
REMARK  143  A    between atoms: _366  and  _367
REMARK  144  A    between atoms: _369  and  _371
REMARK  145  A    between atoms: _371  and  _372
REMARK  146  A    between atoms: _375  and  _377
REMARK  147  A    between atoms: _377  and  _378
REMARK  148  A    between atoms: _377  and  _380
REMARK  149  A    between atoms: _380  and  _381
REMARK  150  A    between atoms: _386  and  _388
REMARK  151  A    between atoms: _388  and  _389
REMARK  152  A    between atoms: _391  and  _393
REMARK  153  A    between atoms: _393  and  _394
REMARK  154  A    between atoms: _393  and  _396
REMARK  155  A    between atoms: _399  and  _401
REMARK  156  A    between atoms: _401  and  _402
REMARK  157  A    between atoms: _405  and  _407
REMARK  158  A    between atoms: _407  and  _408
REMARK  159  A    between atoms: _407  and  _410
REMARK  160  A    between atoms: _410  and  _411
REMARK  161  A    between atoms: _416  and  _418
REMARK  162  A    between atoms: _418  and  _419
REMARK  163  A    between atoms: _418  and  _421
REMARK  164  A    between atoms: _421  and  _422
REMARK  165  A    between atoms: _428  and  _430
REMARK  166  A    between atoms: _430  and  _431
REMARK  167  A    between atoms: _430  and  _433
REMARK  168  A    between atoms: _433  and  _434
REMARK  169  A    between atoms: _434  and  _435
REMARK  170  A    between atoms: _435  and  _436
REMARK  171  A    between atoms: _436  and  _437
REMARK  172  A    between atoms: _441  and  _443
REMARK  173  A    between atoms: _443  and  _444
REMARK  174  A    between atoms: _443  and  _446
REMARK  175  A    between atoms: _446  and  _447
REMARK  176  A    between atoms: _450  and  _452
REMARK  177  A    between atoms: _452  and  _453
REMARK  178  A    between atoms: _452  and  _455
REMARK  179  A    between atoms: _455  and  _456
REMARK  180  A    between atoms: _461  and  _463
REMARK  181  A    between atoms: _463  and  _464
REMARK  182  A    between atoms: _466  and  _468
REMARK  183  A    between atoms: _468  and  _469
REMARK  184  A    between atoms: _468  and  _471
REMARK  185  A    between atoms: _471  and  _472
REMARK  186  A    between atoms: _475  and  _477
REMARK  187  A    between atoms: _477  and  _478
REMARK  188  A    between atoms: _477  and  _480
REMARK  189  A    between atoms: _480  and  _481
REMARK  190  A    between atoms: _481  and  _482
REMARK  191  A    between atoms: _482  and  _483
REMARK  192  A    between atoms: _483  and  _484
REMARK  193  A    between atoms: _488  and  _490
REMARK  194  A    between atoms: _490  and  _491
REMARK  195  A    between atoms: _490  and  _493
REMARK  196  A    between atoms: _493  and  _494
REMARK  197  A    between atoms: _494  and  _495
REMARK  198  A    between atoms: _495  and  _496
REMARK  199  A    between atoms: _505  and  _507
REMARK  200  A    between atoms: _507  and  _508
REMARK  201  A    between atoms: _507  and  _510
REMARK  202  A    between atoms: _510  and  _511
REMARK  203  A    between atoms: _516  and  _518
REMARK  204  A    between atoms: _518  and  _519
REMARK  205  A    between atoms: _518  and  _521
REMARK  206  A    between atoms: _521  and  _522
REMARK  207  A    between atoms: _527  and  _528
REMARK  208  A    between atoms: _530  and  _532
REMARK  209  A    between atoms: _532  and  _533
REMARK  210  A    between atoms: _532  and  _535
REMARK  211  A    between atoms: _535  and  _536
REMARK  212  A    between atoms: _536  and  _537
REMARK  213  A    between atoms: _537  and  _538
REMARK  214  A    between atoms: _538  and  _539
REMARK  215  A    between atoms: _543  and  _545
REMARK  216  A    between atoms: _545  and  _546
REMARK  217  A    between atoms: _545  and  _548
REMARK  218  A    between atoms: _548  and  _549
REMARK  219  A    between atoms: _551  and  _553
REMARK  220  A    between atoms: _553  and  _554
REMARK  221  A    between atoms: _553  and  _556
REMARK  222  A    between atoms: _556  and  _557
REMARK  223  A    between atoms: _560  and  _562
REMARK  224  A    between atoms: _562  and  _563
REMARK  225  A    between atoms: _562  and  _565
REMARK  226  A    between atoms: _565  and  _566
REMARK  227  A    between atoms: _566  and  _567
REMARK  228  A    between atoms: _570  and  _572
REMARK  229  A    between atoms: _572  and  _573
REMARK  230  A    between atoms: _576  and  _578
REMARK  231  A    between atoms: _578  and  _579
REMARK  232  A    between atoms: _578  and  _581
REMARK  233  A    between atoms: _581  and  _582
REMARK  234  A    between atoms: _584  and  _586
REMARK  235  A    between atoms: _586  and  _587
REMARK  236  A    between atoms: _589  and  _591
REMARK  237  A    between atoms: _591  and  _592
REMARK  238  A    between atoms: _591  and  _594
REMARK  239  A    between atoms: _594  and  _595
REMARK  240  A    between atoms: _598  and  _600
REMARK  241  A    between atoms: _600  and  _601
REMARK  242  A    between atoms: _603  and  _605
REMARK  243  A    between atoms: _605  and  _606
REMARK  244  A    between atoms: _605  and  _608
REMARK  245  A    between atoms: _608  and  _609
REMARK  246  A    between atoms: _614  and  _616
REMARK  247  A    between atoms: _616  and  _617
REMARK  248  A    between atoms: _616  and  _619
REMARK  249  A    between atoms: _619  and  _620
REMARK  250  A    between atoms: _620  and  _621
REMARK  251  A    between atoms: _628  and  _629
REMARK  252  A    between atoms: _629  and  _645
REMARK  253  A    between atoms: _630  and  _632
REMARK  254  A    between atoms: _632  and  _633
REMARK  255  A    between atoms: _633  and  _634
REMARK  256  A    between atoms: _638  and  _640
REMARK  257  A    between atoms: _640  and  _641
REMARK  258  A    between atoms: _640  and  _648
REMARK  259  A    between atoms: _641  and  _642
REMARK  260  A    between atoms: _642  and  _643
REMARK  261  A    between atoms: _643  and  _644
REMARK  262  A    between atoms: _644  and  _645
REMARK  263  A    between atoms: _650  and  _652
REMARK  264  A    between atoms: _652  and  _653
REMARK  265  A    between atoms: _652  and  _655
REMARK  266  A    between atoms: _655  and  _656
REMARK  267  A    between atoms: _659  and  _661
REMARK  268  A    between atoms: _661  and  _662
REMARK  269  A    between atoms: _664  and  _666
REMARK  270  A    between atoms: _666  and  _667
REMARK  271  A    between atoms: _670  and  _672
REMARK  272  A    between atoms: _672  and  _673
REMARK  273  A    between atoms: _672  and  _675
REMARK  274  A    between atoms: _675  and  _676
REMARK  275  A    between atoms: _679  and  _681
REMARK  276  A    between atoms: _681  and  _682
REMARK  277  A    between atoms: _681  and  _684
REMARK  278  A    between atoms: _684  and  _685
REMARK  279  A    between atoms: _690  and  _691
REMARK                            x       y       z     vdW  Elec       q    Type
REMARK                         _______ _______ _______ _____ _____    ______ ____
ROOT
ATOM      1  O   HOH     1      36.634  22.202  17.956  0.00  0.00    +0.000 OA
ENDROOT
TORSDOF 0
REMARK  Name = ../refined-set-2016/4eky/4eky_pocket.pdb
REMARK  279 active torsions:
REMARK  status: ('A' for Active; 'I' for Inactive)
REMARK    1  A    between atoms: _1  and  _3
REMARK    2  A    between atoms: _3  and  _4
REMARK    3  A    between atoms: _3  and  _6
REMARK    4  A    between atoms: _6  and  _7
REMARK    5  A    between atoms: _12  and  _13
REMARK    6  A    between atoms: _15  and  _17
REMARK    7  A    between atoms: _17  and  _18
REMARK    8  A    between atoms: _17  and  _20
REMARK    9  A    between atoms: _20  and  _21
REMARK   10  A    between atoms: _21  and  _22
REMARK   11  A    between atoms: _25  and  _27
REMARK   12  A    between atoms: _27  and  _28
REMARK   13  A    between atoms: _27  and  _30
REMARK   14  A    between atoms: _30  and  _31
REMARK   15  A    between atoms: _36  and  _37
REMARK   16  A    between atoms: _39  and  _41
REMARK   17  A    between atoms: _41  and  _42
REMARK   18  A    between atoms: _41  and  _44
REMARK   19  A    between atoms: _44  and  _45
REMARK   20  A    between atoms: _50  and  _52
REMARK   21  A    between atoms: _52  and  _53
REMARK   22  A    between atoms: _55  and  _57
REMARK   23  A    between atoms: _57  and  _58
REMARK   24  A    between atoms: _60  and  _62
REMARK   25  A    between atoms: _62  and  _63
REMARK   26  A    between atoms: _62  and  _65
REMARK   27  A    between atoms: _65  and  _66
REMARK   28  A    between atoms: _69  and  _71
REMARK   29  A    between atoms: _71  and  _72
REMARK   30  A    between atoms: _74  and  _76
REMARK   31  A    between atoms: _76  and  _77
REMARK   32  A    between atoms: _76  and  _79
REMARK   33  A    between atoms: _79  and  _80
REMARK   34  A    between atoms: _80  and  _81
REMARK   35  A    between atoms: _81  and  _82
REMARK   36  A    between atoms: _91  and  _93
REMARK   37  A    between atoms: _93  and  _94
REMARK   38  A    between atoms: _93  and  _96
REMARK   39  A    between atoms: _96  and  _97
REMARK   40  A    between atoms: _100  and  _102
REMARK   41  A    between atoms: _102  and  _103
REMARK   42  A    between atoms: _106  and  _108
REMARK   43  A    between atoms: _108  and  _109
REMARK   44  A    between atoms: _108  and  _111
REMARK   45  A    between atoms: _111  and  _112
REMARK   46  A    between atoms: _118  and  _120
REMARK   47  A    between atoms: _120  and  _121
REMARK   48  A    between atoms: _120  and  _123
REMARK   49  A    between atoms: _123  and  _124
REMARK   50  A    between atoms: _129  and  _131
REMARK   51  A    between atoms: _131  and  _132
REMARK   52  A    between atoms: _131  and  _134
REMARK   53  A    between atoms: _134  and  _135
REMARK   54  A    between atoms: _138  and  _140
REMARK   55  A    between atoms: _140  and  _141
REMARK   56  A    between atoms: _140  and  _143
REMARK   57  A    between atoms: _143  and  _144
REMARK   58  A    between atoms: _149  and  _151
REMARK   59  A    between atoms: _151  and  _152
REMARK   60  A    between atoms: _151  and  _154
REMARK   61  A    between atoms: _154  and  _155
REMARK   62  A    between atoms: _161  and  _163
REMARK   63  A    between atoms: _163  and  _164
REMARK   64  A    between atoms: _163  and  _166
REMARK   65  A    between atoms: _166  and  _167
REMARK   66  A    between atoms: _173  and  _175
REMARK   67  A    between atoms: _175  and  _176
REMARK   68  A    between atoms: _175  and  _178
REMARK   69  A    between atoms: _178  and  _179
REMARK   70  A    between atoms: _179  and  _180
REMARK   71  A    between atoms: _180  and  _181
REMARK   72  A    between atoms: _190  and  _192
REMARK   73  A    between atoms: _192  and  _193
REMARK   74  A    between atoms: _192  and  _195
REMARK   75  A    between atoms: _195  and  _196
REMARK   76  A    between atoms: _196  and  _197
REMARK   77  A    between atoms: _200  and  _202
REMARK   78  A    between atoms: _202  and  _203
REMARK   79  A    between atoms: _202  and  _205
REMARK   80  A    between atoms: _205  and  _206
REMARK   81  A    between atoms: _211  and  _213
REMARK   82  A    between atoms: _213  and  _214
REMARK   83  A    between atoms: _213  and  _216
REMARK   84  A    between atoms: _216  and  _217
REMARK   85  A    between atoms: _220  and  _222
REMARK   86  A    between atoms: _222  and  _223
REMARK   87  A    between atoms: _222  and  _225
REMARK   88  A    between atoms: _225  and  _226
REMARK   89  A    between atoms: _229  and  _231
REMARK   90  A    between atoms: _231  and  _232
REMARK   91  A    between atoms: _231  and  _234
REMARK   92  A    between atoms: _234  and  _235
REMARK   93  A    between atoms: _241  and  _242
REMARK   94  A    between atoms: _247  and  _249
REMARK   95  A    between atoms: _249  and  _250
REMARK   96  A    between atoms: _249  and  _252
REMARK   97  A    between atoms: _252  and  _253
REMARK   98  A    between atoms: _258  and  _259
REMARK   99  A    between atoms: _261  and  _263
REMARK  100  A    between atoms: _263  and  _264
REMARK  101  A    between atoms: _263  and  _266
REMARK  102  A    between atoms: _266  and  _267
REMARK  103  A    between atoms: _270  and  _272
REMARK  104  A    between atoms: _272  and  _273
REMARK  105  A    between atoms: _272  and  _275
REMARK  106  A    between atoms: _275  and  _276
REMARK  107  A    between atoms: _281  and  _283
REMARK  108  A    between atoms: _283  and  _284
REMARK  109  A    between atoms: _283  and  _286
REMARK  110  A    between atoms: _286  and  _287
REMARK  111  A    between atoms: _292  and  _294
REMARK  112  A    between atoms: _294  and  _295
REMARK  113  A    between atoms: _294  and  _297
REMARK  114  A    between atoms: _297  and  _298
REMARK  115  A    between atoms: _301  and  _303
REMARK  116  A    between atoms: _303  and  _304
REMARK  117  A    between atoms: _303  and  _306
REMARK  118  A    between atoms: _309  and  _311
REMARK  119  A    between atoms: _311  and  _312
REMARK  120  A    between atoms: _311  and  _314
REMARK  121  A    between atoms: _314  and  _315
REMARK  122  A    between atoms: _319  and  _320
REMARK  123  A    between atoms: _325  and  _327
REMARK  124  A    between atoms: _327  and  _328
REMARK  125  A    between atoms: _327  and  _330
REMARK  126  A    between atoms: _330  and  _331
REMARK  127  A    between atoms: _331  and  _332
REMARK  128  A    between atoms: _335  and  _337
REMARK  129  A    between atoms: _337  and  _338
REMARK  130  A    between atoms: _341  and  _343
REMARK  131  A    between atoms: _343  and  _344
REMARK  132  A    between atoms: _343  and  _346
REMARK  133  A    between atoms: _346  and  _347
REMARK  134  A    between atoms: _350  and  _352
REMARK  135  A    between atoms: _352  and  _353
REMARK  136  A    between atoms: _352  and  _355
REMARK  137  A    between atoms: _355  and  _356
REMARK  138  A    between atoms: _356  and  _357
REMARK  139  A    between atoms: _360  and  _362
REMARK  140  A    between atoms: _362  and  _363
REMARK  141  A    between atoms: _362  and  _365
REMARK  142  A    between atoms: _365  and  _366
REMARK  143  A    between atoms: _366  and  _367
REMARK  144  A    between atoms: _369  and  _371
REMARK  145  A    between atoms: _371  and  _372
REMARK  146  A    between atoms: _375  and  _377
REMARK  147  A    between atoms: _377  and  _378
REMARK  148  A    between atoms: _377  and  _380
REMARK  149  A    between atoms: _380  and  _381
REMARK  150  A    between atoms: _386  and  _388
REMARK  151  A    between atoms: _388  and  _389
REMARK  152  A    between atoms: _391  and  _393
REMARK  153  A    between atoms: _393  and  _394
REMARK  154  A    between atoms: _393  and  _396
REMARK  155  A    between atoms: _399  and  _401
REMARK  156  A    between atoms: _401  and  _402
REMARK  157  A    between atoms: _405  and  _407
REMARK  158  A    between atoms: _407  and  _408
REMARK  159  A    between atoms: _407  and  _410
REMARK  160  A    between atoms: _410  and  _411
REMARK  161  A    between atoms: _416  and  _418
REMARK  162  A    between atoms: _418  and  _419
REMARK  163  A    between atoms: _418  and  _421
REMARK  164  A    between atoms: _421  and  _422
REMARK  165  A    between atoms: _428  and  _430
REMARK  166  A    between atoms: _430  and  _431
REMARK  167  A    between atoms: _430  and  _433
REMARK  168  A    between atoms: _433  and  _434
REMARK  169  A    between atoms: _434  and  _435
REMARK  170  A    between atoms: _435  and  _436
REMARK  171  A    between atoms: _436  and  _437
REMARK  172  A    between atoms: _441  and  _443
REMARK  173  A    between atoms: _443  and  _444
REMARK  174  A    between atoms: _443  and  _446
REMARK  175  A    between atoms: _446  and  _447
REMARK  176  A    between atoms: _450  and  _452
REMARK  177  A    between atoms: _452  and  _453
REMARK  178  A    between atoms: _452  and  _455
REMARK  179  A    between atoms: _455  and  _456
REMARK  180  A    between atoms: _461  and  _463
REMARK  181  A    between atoms: _463  and  _464
REMARK  182  A    between atoms: _466  and  _468
REMARK  183  A    between atoms: _468  and  _469
REMARK  184  A    between atoms: _468  and  _471
REMARK  185  A    between atoms: _471  and  _472
REMARK  186  A    between atoms: _475  and  _477
REMARK  187  A    between atoms: _477  and  _478
REMARK  188  A    between atoms: _477  and  _480
REMARK  189  A    between atoms: _480  and  _481
REMARK  190  A    between atoms: _481  and  _482
REMARK  191  A    between atoms: _482  and  _483
REMARK  192  A    between atoms: _483  and  _484
REMARK  193  A    between atoms: _488  and  _490
REMARK  194  A    between atoms: _490  and  _491
REMARK  195  A    between atoms: _490  and  _493
REMARK  196  A    between atoms: _493  and  _494
REMARK  197  A    between atoms: _494  and  _495
REMARK  198  A    between atoms: _495  and  _496
REMARK  199  A    between atoms: _505  and  _507
REMARK  200  A    between atoms: _507  and  _508
REMARK  201  A    between atoms: _507  and  _510
REMARK  202  A    between atoms: _510  and  _511
REMARK  203  A    between atoms: _516  and  _518
REMARK  204  A    between atoms: _518  and  _519
REMARK  205  A    between atoms: _518  and  _521
REMARK  206  A    between atoms: _521  and  _522
REMARK  207  A    between atoms: _527  and  _528
REMARK  208  A    between atoms: _530  and  _532
REMARK  209  A    between atoms: _532  and  _533
REMARK  210  A    between atoms: _532  and  _535
REMARK  211  A    between atoms: _535  and  _536
REMARK  212  A    between atoms: _536  and  _537
REMARK  213  A    between atoms: _537  and  _538
REMARK  214  A    between atoms: _538  and  _539
REMARK  215  A    between atoms: _543  and  _545
REMARK  216  A    between atoms: _545  and  _546
REMARK  217  A    between atoms: _545  and  _548
REMARK  218  A    between atoms: _548  and  _549
REMARK  219  A    between atoms: _551  and  _553
REMARK  220  A    between atoms: _553  and  _554
REMARK  221  A    between atoms: _553  and  _556
REMARK  222  A    between atoms: _556  and  _557
REMARK  223  A    between atoms: _560  and  _562
REMARK  224  A    between atoms: _562  and  _563
REMARK  225  A    between atoms: _562  and  _565
REMARK  226  A    between atoms: _565  and  _566
REMARK  227  A    between atoms: _566  and  _567
REMARK  228  A    between atoms: _570  and  _572
REMARK  229  A    between atoms: _572  and  _573
REMARK  230  A    between atoms: _576  and  _578
REMARK  231  A    between atoms: _578  and  _579
REMARK  232  A    between atoms: _578  and  _581
REMARK  233  A    between atoms: _581  and  _582
REMARK  234  A    between atoms: _584  and  _586
REMARK  235  A    between atoms: _586  and  _587
REMARK  236  A    between atoms: _589  and  _591
REMARK  237  A    between atoms: _591  and  _592
REMARK  238  A    between atoms: _591  and  _594
REMARK  239  A    between atoms: _594  and  _595
REMARK  240  A    between atoms: _598  and  _600
REMARK  241  A    between atoms: _600  and  _601
REMARK  242  A    between atoms: _603  and  _605
REMARK  243  A    between atoms: _605  and  _606
REMARK  244  A    between atoms: _605  and  _608
REMARK  245  A    between atoms: _608  and  _609
REMARK  246  A    between atoms: _614  and  _616
REMARK  247  A    between atoms: _616  and  _617
REMARK  248  A    between atoms: _616  and  _619
REMARK  249  A    between atoms: _619  and  _620
REMARK  250  A    between atoms: _620  and  _621
REMARK  251  A    between atoms: _628  and  _629
REMARK  252  A    between atoms: _629  and  _645
REMARK  253  A    between atoms: _630  and  _632
REMARK  254  A    between atoms: _632  and  _633
REMARK  255  A    between atoms: _633  and  _634
REMARK  256  A    between atoms: _638  and  _640
REMARK  257  A    between atoms: _640  and  _641
REMARK  258  A    between atoms: _640  and  _648
REMARK  259  A    between atoms: _641  and  _642
REMARK  260  A    between atoms: _642  and  _643
REMARK  261  A    between atoms: _643  and  _644
REMARK  262  A    between atoms: _644  and  _645
REMARK  263  A    between atoms: _650  and  _652
REMARK  264  A    between atoms: _652  and  _653
REMARK  265  A    between atoms: _652  and  _655
REMARK  266  A    between atoms: _655  and  _656
REMARK  267  A    between atoms: _659  and  _661
REMARK  268  A    between atoms: _661  and  _662
REMARK  269  A    between atoms: _664  and  _666
REMARK  270  A    between atoms: _666  and  _667
REMARK  271  A    between atoms: _670  and  _672
REMARK  272  A    between atoms: _672  and  _673
REMARK  273  A    between atoms: _672  and  _675
REMARK  274  A    between atoms: _675  and  _676
REMARK  275  A    between atoms: _679  and  _681
REMARK  276  A    between atoms: _681  and  _682
REMARK  277  A    between atoms: _681  and  _684
REMARK  278  A    between atoms: _684  and  _685
REMARK  279  A    between atoms: _690  and  _691
REMARK                            x       y       z     vdW  Elec       q    Type
REMARK                         _______ _______ _______ _____ _____    ______ ____
ROOT
ATOM      1  O   HOH     1      26.978  19.353  28.990  0.00  0.00    +0.000 OA
ENDROOT
TORSDOF 0
REMARK  Name = ../refined-set-2016/4eky/4eky_pocket.pdb
REMARK  279 active torsions:
REMARK  status: ('A' for Active; 'I' for Inactive)
REMARK    1  A    between atoms: _1  and  _3
REMARK    2  A    between atoms: _3  and  _4
REMARK    3  A    between atoms: _3  and  _6
REMARK    4  A    between atoms: _6  and  _7
REMARK    5  A    between atoms: _12  and  _13
REMARK    6  A    between atoms: _15  and  _17
REMARK    7  A    between atoms: _17  and  _18
REMARK    8  A    between atoms: _17  and  _20
REMARK    9  A    between atoms: _20  and  _21
REMARK   10  A    between atoms: _21  and  _22
REMARK   11  A    between atoms: _25  and  _27
REMARK   12  A    between atoms: _27  and  _28
REMARK   13  A    between atoms: _27  and  _30
REMARK   14  A    between atoms: _30  and  _31
REMARK   15  A    between atoms: _36  and  _37
REMARK   16  A    between atoms: _39  and  _41
REMARK   17  A    between atoms: _41  and  _42
REMARK   18  A    between atoms: _41  and  _44
REMARK   19  A    between atoms: _44  and  _45
REMARK   20  A    between atoms: _50  and  _52
REMARK   21  A    between atoms: _52  and  _53
REMARK   22  A    between atoms: _55  and  _57
REMARK   23  A    between atoms: _57  and  _58
REMARK   24  A    between atoms: _60  and  _62
REMARK   25  A    between atoms: _62  and  _63
REMARK   26  A    between atoms: _62  and  _65
REMARK   27  A    between atoms: _65  and  _66
REMARK   28  A    between atoms: _69  and  _71
REMARK   29  A    between atoms: _71  and  _72
REMARK   30  A    between atoms: _74  and  _76
REMARK   31  A    between atoms: _76  and  _77
REMARK   32  A    between atoms: _76  and  _79
REMARK   33  A    between atoms: _79  and  _80
REMARK   34  A    between atoms: _80  and  _81
REMARK   35  A    between atoms: _81  and  _82
REMARK   36  A    between atoms: _91  and  _93
REMARK   37  A    between atoms: _93  and  _94
REMARK   38  A    between atoms: _93  and  _96
REMARK   39  A    between atoms: _96  and  _97
REMARK   40  A    between atoms: _100  and  _102
REMARK   41  A    between atoms: _102  and  _103
REMARK   42  A    between atoms: _106  and  _108
REMARK   43  A    between atoms: _108  and  _109
REMARK   44  A    between atoms: _108  and  _111
REMARK   45  A    between atoms: _111  and  _112
REMARK   46  A    between atoms: _118  and  _120
REMARK   47  A    between atoms: _120  and  _121
REMARK   48  A    between atoms: _120  and  _123
REMARK   49  A    between atoms: _123  and  _124
REMARK   50  A    between atoms: _129  and  _131
REMARK   51  A    between atoms: _131  and  _132
REMARK   52  A    between atoms: _131  and  _134
REMARK   53  A    between atoms: _134  and  _135
REMARK   54  A    between atoms: _138  and  _140
REMARK   55  A    between atoms: _140  and  _141
REMARK   56  A    between atoms: _140  and  _143
REMARK   57  A    between atoms: _143  and  _144
REMARK   58  A    between atoms: _149  and  _151
REMARK   59  A    between atoms: _151  and  _152
REMARK   60  A    between atoms: _151  and  _154
REMARK   61  A    between atoms: _154  and  _155
REMARK   62  A    between atoms: _161  and  _163
REMARK   63  A    between atoms: _163  and  _164
REMARK   64  A    between atoms: _163  and  _166
REMARK   65  A    between atoms: _166  and  _167
REMARK   66  A    between atoms: _173  and  _175
REMARK   67  A    between atoms: _175  and  _176
REMARK   68  A    between atoms: _175  and  _178
REMARK   69  A    between atoms: _178  and  _179
REMARK   70  A    between atoms: _179  and  _180
REMARK   71  A    between atoms: _180  and  _181
REMARK   72  A    between atoms: _190  and  _192
REMARK   73  A    between atoms: _192  and  _193
REMARK   74  A    between atoms: _192  and  _195
REMARK   75  A    between atoms: _195  and  _196
REMARK   76  A    between atoms: _196  and  _197
REMARK   77  A    between atoms: _200  and  _202
REMARK   78  A    between atoms: _202  and  _203
REMARK   79  A    between atoms: _202  and  _205
REMARK   80  A    between atoms: _205  and  _206
REMARK   81  A    between atoms: _211  and  _213
REMARK   82  A    between atoms: _213  and  _214
REMARK   83  A    between atoms: _213  and  _216
REMARK   84  A    between atoms: _216  and  _217
REMARK   85  A    between atoms: _220  and  _222
REMARK   86  A    between atoms: _222  and  _223
REMARK   87  A    between atoms: _222  and  _225
REMARK   88  A    between atoms: _225  and  _226
REMARK   89  A    between atoms: _229  and  _231
REMARK   90  A    between atoms: _231  and  _232
REMARK   91  A    between atoms: _231  and  _234
REMARK   92  A    between atoms: _234  and  _235
REMARK   93  A    between atoms: _241  and  _242
REMARK   94  A    between atoms: _247  and  _249
REMARK   95  A    between atoms: _249  and  _250
REMARK   96  A    between atoms: _249  and  _252
REMARK   97  A    between atoms: _252  and  _253
REMARK   98  A    between atoms: _258  and  _259
REMARK   99  A    between atoms: _261  and  _263
REMARK  100  A    between atoms: _263  and  _264
REMARK  101  A    between atoms: _263  and  _266
REMARK  102  A    between atoms: _266  and  _267
REMARK  103  A    between atoms: _270  and  _272
REMARK  104  A    between atoms: _272  and  _273
REMARK  105  A    between atoms: _272  and  _275
REMARK  106  A    between atoms: _275  and  _276
REMARK  107  A    between atoms: _281  and  _283
REMARK  108  A    between atoms: _283  and  _284
REMARK  109  A    between atoms: _283  and  _286
REMARK  110  A    between atoms: _286  and  _287
REMARK  111  A    between atoms: _292  and  _294
REMARK  112  A    between atoms: _294  and  _295
REMARK  113  A    between atoms: _294  and  _297
REMARK  114  A    between atoms: _297  and  _298
REMARK  115  A    between atoms: _301  and  _303
REMARK  116  A    between atoms: _303  and  _304
REMARK  117  A    between atoms: _303  and  _306
REMARK  118  A    between atoms: _309  and  _311
REMARK  119  A    between atoms: _311  and  _312
REMARK  120  A    between atoms: _311  and  _314
REMARK  121  A    between atoms: _314  and  _315
REMARK  122  A    between atoms: _319  and  _320
REMARK  123  A    between atoms: _325  and  _327
REMARK  124  A    between atoms: _327  and  _328
REMARK  125  A    between atoms: _327  and  _330
REMARK  126  A    between atoms: _330  and  _331
REMARK  127  A    between atoms: _331  and  _332
REMARK  128  A    between atoms: _335  and  _337
REMARK  129  A    between atoms: _337  and  _338
REMARK  130  A    between atoms: _341  and  _343
REMARK  131  A    between atoms: _343  and  _344
REMARK  132  A    between atoms: _343  and  _346
REMARK  133  A    between atoms: _346  and  _347
REMARK  134  A    between atoms: _350  and  _352
REMARK  135  A    between atoms: _352  and  _353
REMARK  136  A    between atoms: _352  and  _355
REMARK  137  A    between atoms: _355  and  _356
REMARK  138  A    between atoms: _356  and  _357
REMARK  139  A    between atoms: _360  and  _362
REMARK  140  A    between atoms: _362  and  _363
REMARK  141  A    between atoms: _362  and  _365
REMARK  142  A    between atoms: _365  and  _366
REMARK  143  A    between atoms: _366  and  _367
REMARK  144  A    between atoms: _369  and  _371
REMARK  145  A    between atoms: _371  and  _372
REMARK  146  A    between atoms: _375  and  _377
REMARK  147  A    between atoms: _377  and  _378
REMARK  148  A    between atoms: _377  and  _380
REMARK  149  A    between atoms: _380  and  _381
REMARK  150  A    between atoms: _386  and  _388
REMARK  151  A    between atoms: _388  and  _389
REMARK  152  A    between atoms: _391  and  _393
REMARK  153  A    between atoms: _393  and  _394
REMARK  154  A    between atoms: _393  and  _396
REMARK  155  A    between atoms: _399  and  _401
REMARK  156  A    between atoms: _401  and  _402
REMARK  157  A    between atoms: _405  and  _407
REMARK  158  A    between atoms: _407  and  _408
REMARK  159  A    between atoms: _407  and  _410
REMARK  160  A    between atoms: _410  and  _411
REMARK  161  A    between atoms: _416  and  _418
REMARK  162  A    between atoms: _418  and  _419
REMARK  163  A    between atoms: _418  and  _421
REMARK  164  A    between atoms: _421  and  _422
REMARK  165  A    between atoms: _428  and  _430
REMARK  166  A    between atoms: _430  and  _431
REMARK  167  A    between atoms: _430  and  _433
REMARK  168  A    between atoms: _433  and  _434
REMARK  169  A    between atoms: _434  and  _435
REMARK  170  A    between atoms: _435  and  _436
REMARK  171  A    between atoms: _436  and  _437
REMARK  172  A    between atoms: _441  and  _443
REMARK  173  A    between atoms: _443  and  _444
REMARK  174  A    between atoms: _443  and  _446
REMARK  175  A    between atoms: _446  and  _447
REMARK  176  A    between atoms: _450  and  _452
REMARK  177  A    between atoms: _452  and  _453
REMARK  178  A    between atoms: _452  and  _455
REMARK  179  A    between atoms: _455  and  _456
REMARK  180  A    between atoms: _461  and  _463
REMARK  181  A    between atoms: _463  and  _464
REMARK  182  A    between atoms: _466  and  _468
REMARK  183  A    between atoms: _468  and  _469
REMARK  184  A    between atoms: _468  and  _471
REMARK  185  A    between atoms: _471  and  _472
REMARK  186  A    between atoms: _475  and  _477
REMARK  187  A    between atoms: _477  and  _478
REMARK  188  A    between atoms: _477  and  _480
REMARK  189  A    between atoms: _480  and  _481
REMARK  190  A    between atoms: _481  and  _482
REMARK  191  A    between atoms: _482  and  _483
REMARK  192  A    between atoms: _483  and  _484
REMARK  193  A    between atoms: _488  and  _490
REMARK  194  A    between atoms: _490  and  _491
REMARK  195  A    between atoms: _490  and  _493
REMARK  196  A    between atoms: _493  and  _494
REMARK  197  A    between atoms: _494  and  _495
REMARK  198  A    between atoms: _495  and  _496
REMARK  199  A    between atoms: _505  and  _507
REMARK  200  A    between atoms: _507  and  _508
REMARK  201  A    between atoms: _507  and  _510
REMARK  202  A    between atoms: _510  and  _511
REMARK  203  A    between atoms: _516  and  _518
REMARK  204  A    between atoms: _518  and  _519
REMARK  205  A    between atoms: _518  and  _521
REMARK  206  A    between atoms: _521  and  _522
REMARK  207  A    between atoms: _527  and  _528
REMARK  208  A    between atoms: _530  and  _532
REMARK  209  A    between atoms: _532  and  _533
REMARK  210  A    between atoms: _532  and  _535
REMARK  211  A    between atoms: _535  and  _536
REMARK  212  A    between atoms: _536  and  _537
REMARK  213  A    between atoms: _537  and  _538
REMARK  214  A    between atoms: _538  and  _539
REMARK  215  A    between atoms: _543  and  _545
REMARK  216  A    between atoms: _545  and  _546
REMARK  217  A    between atoms: _545  and  _548
REMARK  218  A    between atoms: _548  and  _549
REMARK  219  A    between atoms: _551  and  _553
REMARK  220  A    between atoms: _553  and  _554
REMARK  221  A    between atoms: _553  and  _556
REMARK  222  A    between atoms: _556  and  _557
REMARK  223  A    between atoms: _560  and  _562
REMARK  224  A    between atoms: _562  and  _563
REMARK  225  A    between atoms: _562  and  _565
REMARK  226  A    between atoms: _565  and  _566
REMARK  227  A    between atoms: _566  and  _567
REMARK  228  A    between atoms: _570  and  _572
REMARK  229  A    between atoms: _572  and  _573
REMARK  230  A    between atoms: _576  and  _578
REMARK  231  A    between atoms: _578  and  _579
REMARK  232  A    between atoms: _578  and  _581
REMARK  233  A    between atoms: _581  and  _582
REMARK  234  A    between atoms: _584  and  _586
REMARK  235  A    between atoms: _586  and  _587
REMARK  236  A    between atoms: _589  and  _591
REMARK  237  A    between atoms: _591  and  _592
REMARK  238  A    between atoms: _591  and  _594
REMARK  239  A    between atoms: _594  and  _595
REMARK  240  A    between atoms: _598  and  _600
REMARK  241  A    between atoms: _600  and  _601
REMARK  242  A    between atoms: _603  and  _605
REMARK  243  A    between atoms: _605  and  _606
REMARK  244  A    between atoms: _605  and  _608
REMARK  245  A    between atoms: _608  and  _609
REMARK  246  A    between atoms: _614  and  _616
REMARK  247  A    between atoms: _616  and  _617
REMARK  248  A    between atoms: _616  and  _619
REMARK  249  A    between atoms: _619  and  _620
REMARK  250  A    between atoms: _620  and  _621
REMARK  251  A    between atoms: _628  and  _629
REMARK  252  A    between atoms: _629  and  _645
REMARK  253  A    between atoms: _630  and  _632
REMARK  254  A    between atoms: _632  and  _633
REMARK  255  A    between atoms: _633  and  _634
REMARK  256  A    between atoms: _638  and  _640
REMARK  257  A    between atoms: _640  and  _641
REMARK  258  A    between atoms: _640  and  _648
REMARK  259  A    between atoms: _641  and  _642
REMARK  260  A    between atoms: _642  and  _643
REMARK  261  A    between atoms: _643  and  _644
REMARK  262  A    between atoms: _644  and  _645
REMARK  263  A    between atoms: _650  and  _652
REMARK  264  A    between atoms: _652  and  _653
REMARK  265  A    between atoms: _652  and  _655
REMARK  266  A    between atoms: _655  and  _656
REMARK  267  A    between atoms: _659  and  _661
REMARK  268  A    between atoms: _661  and  _662
REMARK  269  A    between atoms: _664  and  _666
REMARK  270  A    between atoms: _666  and  _667
REMARK  271  A    between atoms: _670  and  _672
REMARK  272  A    between atoms: _672  and  _673
REMARK  273  A    between atoms: _672  and  _675
REMARK  274  A    between atoms: _675  and  _676
REMARK  275  A    between atoms: _679  and  _681
REMARK  276  A    between atoms: _681  and  _682
REMARK  277  A    between atoms: _681  and  _684
REMARK  278  A    between atoms: _684  and  _685
REMARK  279  A    between atoms: _690  and  _691
REMARK                            x       y       z     vdW  Elec       q    Type
REMARK                         _______ _______ _______ _____ _____    ______ ____
ROOT
ATOM      1  O   HOH     1      29.181  21.834  26.287  0.00  0.00    +0.000 OA
ENDROOT
TORSDOF 0
REMARK  Name = ../refined-set-2016/4eky/4eky_pocket.pdb
REMARK  279 active torsions:
REMARK  status: ('A' for Active; 'I' for Inactive)
REMARK    1  A    between atoms: _1  and  _3
REMARK    2  A    between atoms: _3  and  _4
REMARK    3  A    between atoms: _3  and  _6
REMARK    4  A    between atoms: _6  and  _7
REMARK    5  A    between atoms: _12  and  _13
REMARK    6  A    between atoms: _15  and  _17
REMARK    7  A    between atoms: _17  and  _18
REMARK    8  A    between atoms: _17  and  _20
REMARK    9  A    between atoms: _20  and  _21
REMARK   10  A    between atoms: _21  and  _22
REMARK   11  A    between atoms: _25  and  _27
REMARK   12  A    between atoms: _27  and  _28
REMARK   13  A    between atoms: _27  and  _30
REMARK   14  A    between atoms: _30  and  _31
REMARK   15  A    between atoms: _36  and  _37
REMARK   16  A    between atoms: _39  and  _41
REMARK   17  A    between atoms: _41  and  _42
REMARK   18  A    between atoms: _41  and  _44
REMARK   19  A    between atoms: _44  and  _45
REMARK   20  A    between atoms: _50  and  _52
REMARK   21  A    between atoms: _52  and  _53
REMARK   22  A    between atoms: _55  and  _57
REMARK   23  A    between atoms: _57  and  _58
REMARK   24  A    between atoms: _60  and  _62
REMARK   25  A    between atoms: _62  and  _63
REMARK   26  A    between atoms: _62  and  _65
REMARK   27  A    between atoms: _65  and  _66
REMARK   28  A    between atoms: _69  and  _71
REMARK   29  A    between atoms: _71  and  _72
REMARK   30  A    between atoms: _74  and  _76
REMARK   31  A    between atoms: _76  and  _77
REMARK   32  A    between atoms: _76  and  _79
REMARK   33  A    between atoms: _79  and  _80
REMARK   34  A    between atoms: _80  and  _81
REMARK   35  A    between atoms: _81  and  _82
REMARK   36  A    between atoms: _91  and  _93
REMARK   37  A    between atoms: _93  and  _94
REMARK   38  A    between atoms: _93  and  _96
REMARK   39  A    between atoms: _96  and  _97
REMARK   40  A    between atoms: _100  and  _102
REMARK   41  A    between atoms: _102  and  _103
REMARK   42  A    between atoms: _106  and  _108
REMARK   43  A    between atoms: _108  and  _109
REMARK   44  A    between atoms: _108  and  _111
REMARK   45  A    between atoms: _111  and  _112
REMARK   46  A    between atoms: _118  and  _120
REMARK   47  A    between atoms: _120  and  _121
REMARK   48  A    between atoms: _120  and  _123
REMARK   49  A    between atoms: _123  and  _124
REMARK   50  A    between atoms: _129  and  _131
REMARK   51  A    between atoms: _131  and  _132
REMARK   52  A    between atoms: _131  and  _134
REMARK   53  A    between atoms: _134  and  _135
REMARK   54  A    between atoms: _138  and  _140
REMARK   55  A    between atoms: _140  and  _141
REMARK   56  A    between atoms: _140  and  _143
REMARK   57  A    between atoms: _143  and  _144
REMARK   58  A    between atoms: _149  and  _151
REMARK   59  A    between atoms: _151  and  _152
REMARK   60  A    between atoms: _151  and  _154
REMARK   61  A    between atoms: _154  and  _155
REMARK   62  A    between atoms: _161  and  _163
REMARK   63  A    between atoms: _163  and  _164
REMARK   64  A    between atoms: _163  and  _166
REMARK   65  A    between atoms: _166  and  _167
REMARK   66  A    between atoms: _173  and  _175
REMARK   67  A    between atoms: _175  and  _176
REMARK   68  A    between atoms: _175  and  _178
REMARK   69  A    between atoms: _178  and  _179
REMARK   70  A    between atoms: _179  and  _180
REMARK   71  A    between atoms: _180  and  _181
REMARK   72  A    between atoms: _190  and  _192
REMARK   73  A    between atoms: _192  and  _193
REMARK   74  A    between atoms: _192  and  _195
REMARK   75  A    between atoms: _195  and  _196
REMARK   76  A    between atoms: _196  and  _197
REMARK   77  A    between atoms: _200  and  _202
REMARK   78  A    between atoms: _202  and  _203
REMARK   79  A    between atoms: _202  and  _205
REMARK   80  A    between atoms: _205  and  _206
REMARK   81  A    between atoms: _211  and  _213
REMARK   82  A    between atoms: _213  and  _214
REMARK   83  A    between atoms: _213  and  _216
REMARK   84  A    between atoms: _216  and  _217
REMARK   85  A    between atoms: _220  and  _222
REMARK   86  A    between atoms: _222  and  _223
REMARK   87  A    between atoms: _222  and  _225
REMARK   88  A    between atoms: _225  and  _226
REMARK   89  A    between atoms: _229  and  _231
REMARK   90  A    between atoms: _231  and  _232
REMARK   91  A    between atoms: _231  and  _234
REMARK   92  A    between atoms: _234  and  _235
REMARK   93  A    between atoms: _241  and  _242
REMARK   94  A    between atoms: _247  and  _249
REMARK   95  A    between atoms: _249  and  _250
REMARK   96  A    between atoms: _249  and  _252
REMARK   97  A    between atoms: _252  and  _253
REMARK   98  A    between atoms: _258  and  _259
REMARK   99  A    between atoms: _261  and  _263
REMARK  100  A    between atoms: _263  and  _264
REMARK  101  A    between atoms: _263  and  _266
REMARK  102  A    between atoms: _266  and  _267
REMARK  103  A    between atoms: _270  and  _272
REMARK  104  A    between atoms: _272  and  _273
REMARK  105  A    between atoms: _272  and  _275
REMARK  106  A    between atoms: _275  and  _276
REMARK  107  A    between atoms: _281  and  _283
REMARK  108  A    between atoms: _283  and  _284
REMARK  109  A    between atoms: _283  and  _286
REMARK  110  A    between atoms: _286  and  _287
REMARK  111  A    between atoms: _292  and  _294
REMARK  112  A    between atoms: _294  and  _295
REMARK  113  A    between atoms: _294  and  _297
REMARK  114  A    between atoms: _297  and  _298
REMARK  115  A    between atoms: _301  and  _303
REMARK  116  A    between atoms: _303  and  _304
REMARK  117  A    between atoms: _303  and  _306
REMARK  118  A    between atoms: _309  and  _311
REMARK  119  A    between atoms: _311  and  _312
REMARK  120  A    between atoms: _311  and  _314
REMARK  121  A    between atoms: _314  and  _315
REMARK  122  A    between atoms: _319  and  _320
REMARK  123  A    between atoms: _325  and  _327
REMARK  124  A    between atoms: _327  and  _328
REMARK  125  A    between atoms: _327  and  _330
REMARK  126  A    between atoms: _330  and  _331
REMARK  127  A    between atoms: _331  and  _332
REMARK  128  A    between atoms: _335  and  _337
REMARK  129  A    between atoms: _337  and  _338
REMARK  130  A    between atoms: _341  and  _343
REMARK  131  A    between atoms: _343  and  _344
REMARK  132  A    between atoms: _343  and  _346
REMARK  133  A    between atoms: _346  and  _347
REMARK  134  A    between atoms: _350  and  _352
REMARK  135  A    between atoms: _352  and  _353
REMARK  136  A    between atoms: _352  and  _355
REMARK  137  A    between atoms: _355  and  _356
REMARK  138  A    between atoms: _356  and  _357
REMARK  139  A    between atoms: _360  and  _362
REMARK  140  A    between atoms: _362  and  _363
REMARK  141  A    between atoms: _362  and  _365
REMARK  142  A    between atoms: _365  and  _366
REMARK  143  A    between atoms: _366  and  _367
REMARK  144  A    between atoms: _369  and  _371
REMARK  145  A    between atoms: _371  and  _372
REMARK  146  A    between atoms: _375  and  _377
REMARK  147  A    between atoms: _377  and  _378
REMARK  148  A    between atoms: _377  and  _380
REMARK  149  A    between atoms: _380  and  _381
REMARK  150  A    between atoms: _386  and  _388
REMARK  151  A    between atoms: _388  and  _389
REMARK  152  A    between atoms: _391  and  _393
REMARK  153  A    between atoms: _393  and  _394
REMARK  154  A    between atoms: _393  and  _396
REMARK  155  A    between atoms: _399  and  _401
REMARK  156  A    between atoms: _401  and  _402
REMARK  157  A    between atoms: _405  and  _407
REMARK  158  A    between atoms: _407  and  _408
REMARK  159  A    between atoms: _407  and  _410
REMARK  160  A    between atoms: _410  and  _411
REMARK  161  A    between atoms: _416  and  _418
REMARK  162  A    between atoms: _418  and  _419
REMARK  163  A    between atoms: _418  and  _421
REMARK  164  A    between atoms: _421  and  _422
REMARK  165  A    between atoms: _428  and  _430
REMARK  166  A    between atoms: _430  and  _431
REMARK  167  A    between atoms: _430  and  _433
REMARK  168  A    between atoms: _433  and  _434
REMARK  169  A    between atoms: _434  and  _435
REMARK  170  A    between atoms: _435  and  _436
REMARK  171  A    between atoms: _436  and  _437
REMARK  172  A    between atoms: _441  and  _443
REMARK  173  A    between atoms: _443  and  _444
REMARK  174  A    between atoms: _443  and  _446
REMARK  175  A    between atoms: _446  and  _447
REMARK  176  A    between atoms: _450  and  _452
REMARK  177  A    between atoms: _452  and  _453
REMARK  178  A    between atoms: _452  and  _455
REMARK  179  A    between atoms: _455  and  _456
REMARK  180  A    between atoms: _461  and  _463
REMARK  181  A    between atoms: _463  and  _464
REMARK  182  A    between atoms: _466  and  _468
REMARK  183  A    between atoms: _468  and  _469
REMARK  184  A    between atoms: _468  and  _471
REMARK  185  A    between atoms: _471  and  _472
REMARK  186  A    between atoms: _475  and  _477
REMARK  187  A    between atoms: _477  and  _478
REMARK  188  A    between atoms: _477  and  _480
REMARK  189  A    between atoms: _480  and  _481
REMARK  190  A    between atoms: _481  and  _482
REMARK  191  A    between atoms: _482  and  _483
REMARK  192  A    between atoms: _483  and  _484
REMARK  193  A    between atoms: _488  and  _490
REMARK  194  A    between atoms: _490  and  _491
REMARK  195  A    between atoms: _490  and  _493
REMARK  196  A    between atoms: _493  and  _494
REMARK  197  A    between atoms: _494  and  _495
REMARK  198  A    between atoms: _495  and  _496
REMARK  199  A    between atoms: _505  and  _507
REMARK  200  A    between atoms: _507  and  _508
REMARK  201  A    between atoms: _507  and  _510
REMARK  202  A    between atoms: _510  and  _511
REMARK  203  A    between atoms: _516  and  _518
REMARK  204  A    between atoms: _518  and  _519
REMARK  205  A    between atoms: _518  and  _521
REMARK  206  A    between atoms: _521  and  _522
REMARK  207  A    between atoms: _527  and  _528
REMARK  208  A    between atoms: _530  and  _532
REMARK  209  A    between atoms: _532  and  _533
REMARK  210  A    between atoms: _532  and  _535
REMARK  211  A    between atoms: _535  and  _536
REMARK  212  A    between atoms: _536  and  _537
REMARK  213  A    between atoms: _537  and  _538
REMARK  214  A    between atoms: _538  and  _539
REMARK  215  A    between atoms: _543  and  _545
REMARK  216  A    between atoms: _545  and  _546
REMARK  217  A    between atoms: _545  and  _548
REMARK  218  A    between atoms: _548  and  _549
REMARK  219  A    between atoms: _551  and  _553
REMARK  220  A    between atoms: _553  and  _554
REMARK  221  A    between atoms: _553  and  _556
REMARK  222  A    between atoms: _556  and  _557
REMARK  223  A    between atoms: _560  and  _562
REMARK  224  A    between atoms: _562  and  _563
REMARK  225  A    between atoms: _562  and  _565
REMARK  226  A    between atoms: _565  and  _566
REMARK  227  A    between atoms: _566  and  _567
REMARK  228  A    between atoms: _570  and  _572
REMARK  229  A    between atoms: _572  and  _573
REMARK  230  A    between atoms: _576  and  _578
REMARK  231  A    between atoms: _578  and  _579
REMARK  232  A    between atoms: _578  and  _581
REMARK  233  A    between atoms: _581  and  _582
REMARK  234  A    between atoms: _584  and  _586
REMARK  235  A    between atoms: _586  and  _587
REMARK  236  A    between atoms: _589  and  _591
REMARK  237  A    between atoms: _591  and  _592
REMARK  238  A    between atoms: _591  and  _594
REMARK  239  A    between atoms: _594  and  _595
REMARK  240  A    between atoms: _598  and  _600
REMARK  241  A    between atoms: _600  and  _601
REMARK  242  A    between atoms: _603  and  _605
REMARK  243  A    between atoms: _605  and  _606
REMARK  244  A    between atoms: _605  and  _608
REMARK  245  A    between atoms: _608  and  _609
REMARK  246  A    between atoms: _614  and  _616
REMARK  247  A    between atoms: _616  and  _617
REMARK  248  A    between atoms: _616  and  _619
REMARK  249  A    between atoms: _619  and  _620
REMARK  250  A    between atoms: _620  and  _621
REMARK  251  A    between atoms: _628  and  _629
REMARK  252  A    between atoms: _629  and  _645
REMARK  253  A    between atoms: _630  and  _632
REMARK  254  A    between atoms: _632  and  _633
REMARK  255  A    between atoms: _633  and  _634
REMARK  256  A    between atoms: _638  and  _640
REMARK  257  A    between atoms: _640  and  _641
REMARK  258  A    between atoms: _640  and  _648
REMARK  259  A    between atoms: _641  and  _642
REMARK  260  A    between atoms: _642  and  _643
REMARK  261  A    between atoms: _643  and  _644
REMARK  262  A    between atoms: _644  and  _645
REMARK  263  A    between atoms: _650  and  _652
REMARK  264  A    between atoms: _652  and  _653
REMARK  265  A    between atoms: _652  and  _655
REMARK  266  A    between atoms: _655  and  _656
REMARK  267  A    between atoms: _659  and  _661
REMARK  268  A    between atoms: _661  and  _662
REMARK  269  A    between atoms: _664  and  _666
REMARK  270  A    between atoms: _666  and  _667
REMARK  271  A    between atoms: _670  and  _672
REMARK  272  A    between atoms: _672  and  _673
REMARK  273  A    between atoms: _672  and  _675
REMARK  274  A    between atoms: _675  and  _676
REMARK  275  A    between atoms: _679  and  _681
REMARK  276  A    between atoms: _681  and  _682
REMARK  277  A    between atoms: _681  and  _684
REMARK  278  A    between atoms: _684  and  _685
REMARK  279  A    between atoms: _690  and  _691
REMARK                            x       y       z     vdW  Elec       q    Type
REMARK                         _______ _______ _______ _____ _____    ______ ____
ROOT
ATOM      1  O   HOH     1      38.763  30.120  37.119  0.00  0.00    +0.000 OA
ENDROOT
TORSDOF 0
REMARK  Name = ../refined-set-2016/4eky/4eky_pocket.pdb
REMARK  279 active torsions:
REMARK  status: ('A' for Active; 'I' for Inactive)
REMARK    1  A    between atoms: _1  and  _3
REMARK    2  A    between atoms: _3  and  _4
REMARK    3  A    between atoms: _3  and  _6
REMARK    4  A    between atoms: _6  and  _7
REMARK    5  A    between atoms: _12  and  _13
REMARK    6  A    between atoms: _15  and  _17
REMARK    7  A    between atoms: _17  and  _18
REMARK    8  A    between atoms: _17  and  _20
REMARK    9  A    between atoms: _20  and  _21
REMARK   10  A    between atoms: _21  and  _22
REMARK   11  A    between atoms: _25  and  _27
REMARK   12  A    between atoms: _27  and  _28
REMARK   13  A    between atoms: _27  and  _30
REMARK   14  A    between atoms: _30  and  _31
REMARK   15  A    between atoms: _36  and  _37
REMARK   16  A    between atoms: _39  and  _41
REMARK   17  A    between atoms: _41  and  _42
REMARK   18  A    between atoms: _41  and  _44
REMARK   19  A    between atoms: _44  and  _45
REMARK   20  A    between atoms: _50  and  _52
REMARK   21  A    between atoms: _52  and  _53
REMARK   22  A    between atoms: _55  and  _57
REMARK   23  A    between atoms: _57  and  _58
REMARK   24  A    between atoms: _60  and  _62
REMARK   25  A    between atoms: _62  and  _63
REMARK   26  A    between atoms: _62  and  _65
REMARK   27  A    between atoms: _65  and  _66
REMARK   28  A    between atoms: _69  and  _71
REMARK   29  A    between atoms: _71  and  _72
REMARK   30  A    between atoms: _74  and  _76
REMARK   31  A    between atoms: _76  and  _77
REMARK   32  A    between atoms: _76  and  _79
REMARK   33  A    between atoms: _79  and  _80
REMARK   34  A    between atoms: _80  and  _81
REMARK   35  A    between atoms: _81  and  _82
REMARK   36  A    between atoms: _91  and  _93
REMARK   37  A    between atoms: _93  and  _94
REMARK   38  A    between atoms: _93  and  _96
REMARK   39  A    between atoms: _96  and  _97
REMARK   40  A    between atoms: _100  and  _102
REMARK   41  A    between atoms: _102  and  _103
REMARK   42  A    between atoms: _106  and  _108
REMARK   43  A    between atoms: _108  and  _109
REMARK   44  A    between atoms: _108  and  _111
REMARK   45  A    between atoms: _111  and  _112
REMARK   46  A    between atoms: _118  and  _120
REMARK   47  A    between atoms: _120  and  _121
REMARK   48  A    between atoms: _120  and  _123
REMARK   49  A    between atoms: _123  and  _124
REMARK   50  A    between atoms: _129  and  _131
REMARK   51  A    between atoms: _131  and  _132
REMARK   52  A    between atoms: _131  and  _134
REMARK   53  A    between atoms: _134  and  _135
REMARK   54  A    between atoms: _138  and  _140
REMARK   55  A    between atoms: _140  and  _141
REMARK   56  A    between atoms: _140  and  _143
REMARK   57  A    between atoms: _143  and  _144
REMARK   58  A    between atoms: _149  and  _151
REMARK   59  A    between atoms: _151  and  _152
REMARK   60  A    between atoms: _151  and  _154
REMARK   61  A    between atoms: _154  and  _155
REMARK   62  A    between atoms: _161  and  _163
REMARK   63  A    between atoms: _163  and  _164
REMARK   64  A    between atoms: _163  and  _166
REMARK   65  A    between atoms: _166  and  _167
REMARK   66  A    between atoms: _173  and  _175
REMARK   67  A    between atoms: _175  and  _176
REMARK   68  A    between atoms: _175  and  _178
REMARK   69  A    between atoms: _178  and  _179
REMARK   70  A    between atoms: _179  and  _180
REMARK   71  A    between atoms: _180  and  _181
REMARK   72  A    between atoms: _190  and  _192
REMARK   73  A    between atoms: _192  and  _193
REMARK   74  A    between atoms: _192  and  _195
REMARK   75  A    between atoms: _195  and  _196
REMARK   76  A    between atoms: _196  and  _197
REMARK   77  A    between atoms: _200  and  _202
REMARK   78  A    between atoms: _202  and  _203
REMARK   79  A    between atoms: _202  and  _205
REMARK   80  A    between atoms: _205  and  _206
REMARK   81  A    between atoms: _211  and  _213
REMARK   82  A    between atoms: _213  and  _214
REMARK   83  A    between atoms: _213  and  _216
REMARK   84  A    between atoms: _216  and  _217
REMARK   85  A    between atoms: _220  and  _222
REMARK   86  A    between atoms: _222  and  _223
REMARK   87  A    between atoms: _222  and  _225
REMARK   88  A    between atoms: _225  and  _226
REMARK   89  A    between atoms: _229  and  _231
REMARK   90  A    between atoms: _231  and  _232
REMARK   91  A    between atoms: _231  and  _234
REMARK   92  A    between atoms: _234  and  _235
REMARK   93  A    between atoms: _241  and  _242
REMARK   94  A    between atoms: _247  and  _249
REMARK   95  A    between atoms: _249  and  _250
REMARK   96  A    between atoms: _249  and  _252
REMARK   97  A    between atoms: _252  and  _253
REMARK   98  A    between atoms: _258  and  _259
REMARK   99  A    between atoms: _261  and  _263
REMARK  100  A    between atoms: _263  and  _264
REMARK  101  A    between atoms: _263  and  _266
REMARK  102  A    between atoms: _266  and  _267
REMARK  103  A    between atoms: _270  and  _272
REMARK  104  A    between atoms: _272  and  _273
REMARK  105  A    between atoms: _272  and  _275
REMARK  106  A    between atoms: _275  and  _276
REMARK  107  A    between atoms: _281  and  _283
REMARK  108  A    between atoms: _283  and  _284
REMARK  109  A    between atoms: _283  and  _286
REMARK  110  A    between atoms: _286  and  _287
REMARK  111  A    between atoms: _292  and  _294
REMARK  112  A    between atoms: _294  and  _295
REMARK  113  A    between atoms: _294  and  _297
REMARK  114  A    between atoms: _297  and  _298
REMARK  115  A    between atoms: _301  and  _303
REMARK  116  A    between atoms: _303  and  _304
REMARK  117  A    between atoms: _303  and  _306
REMARK  118  A    between atoms: _309  and  _311
REMARK  119  A    between atoms: _311  and  _312
REMARK  120  A    between atoms: _311  and  _314
REMARK  121  A    between atoms: _314  and  _315
REMARK  122  A    between atoms: _319  and  _320
REMARK  123  A    between atoms: _325  and  _327
REMARK  124  A    between atoms: _327  and  _328
REMARK  125  A    between atoms: _327  and  _330
REMARK  126  A    between atoms: _330  and  _331
REMARK  127  A    between atoms: _331  and  _332
REMARK  128  A    between atoms: _335  and  _337
REMARK  129  A    between atoms: _337  and  _338
REMARK  130  A    between atoms: _341  and  _343
REMARK  131  A    between atoms: _343  and  _344
REMARK  132  A    between atoms: _343  and  _346
REMARK  133  A    between atoms: _346  and  _347
REMARK  134  A    between atoms: _350  and  _352
REMARK  135  A    between atoms: _352  and  _353
REMARK  136  A    between atoms: _352  and  _355
REMARK  137  A    between atoms: _355  and  _356
REMARK  138  A    between atoms: _356  and  _357
REMARK  139  A    between atoms: _360  and  _362
REMARK  140  A    between atoms: _362  and  _363
REMARK  141  A    between atoms: _362  and  _365
REMARK  142  A    between atoms: _365  and  _366
REMARK  143  A    between atoms: _366  and  _367
REMARK  144  A    between atoms: _369  and  _371
REMARK  145  A    between atoms: _371  and  _372
REMARK  146  A    between atoms: _375  and  _377
REMARK  147  A    between atoms: _377  and  _378
REMARK  148  A    between atoms: _377  and  _380
REMARK  149  A    between atoms: _380  and  _381
REMARK  150  A    between atoms: _386  and  _388
REMARK  151  A    between atoms: _388  and  _389
REMARK  152  A    between atoms: _391  and  _393
REMARK  153  A    between atoms: _393  and  _394
REMARK  154  A    between atoms: _393  and  _396
REMARK  155  A    between atoms: _399  and  _401
REMARK  156  A    between atoms: _401  and  _402
REMARK  157  A    between atoms: _405  and  _407
REMARK  158  A    between atoms: _407  and  _408
REMARK  159  A    between atoms: _407  and  _410
REMARK  160  A    between atoms: _410  and  _411
REMARK  161  A    between atoms: _416  and  _418
REMARK  162  A    between atoms: _418  and  _419
REMARK  163  A    between atoms: _418  and  _421
REMARK  164  A    between atoms: _421  and  _422
REMARK  165  A    between atoms: _428  and  _430
REMARK  166  A    between atoms: _430  and  _431
REMARK  167  A    between atoms: _430  and  _433
REMARK  168  A    between atoms: _433  and  _434
REMARK  169  A    between atoms: _434  and  _435
REMARK  170  A    between atoms: _435  and  _436
REMARK  171  A    between atoms: _436  and  _437
REMARK  172  A    between atoms: _441  and  _443
REMARK  173  A    between atoms: _443  and  _444
REMARK  174  A    between atoms: _443  and  _446
REMARK  175  A    between atoms: _446  and  _447
REMARK  176  A    between atoms: _450  and  _452
REMARK  177  A    between atoms: _452  and  _453
REMARK  178  A    between atoms: _452  and  _455
REMARK  179  A    between atoms: _455  and  _456
REMARK  180  A    between atoms: _461  and  _463
REMARK  181  A    between atoms: _463  and  _464
REMARK  182  A    between atoms: _466  and  _468
REMARK  183  A    between atoms: _468  and  _469
REMARK  184  A    between atoms: _468  and  _471
REMARK  185  A    between atoms: _471  and  _472
REMARK  186  A    between atoms: _475  and  _477
REMARK  187  A    between atoms: _477  and  _478
REMARK  188  A    between atoms: _477  and  _480
REMARK  189  A    between atoms: _480  and  _481
REMARK  190  A    between atoms: _481  and  _482
REMARK  191  A    between atoms: _482  and  _483
REMARK  192  A    between atoms: _483  and  _484
REMARK  193  A    between atoms: _488  and  _490
REMARK  194  A    between atoms: _490  and  _491
REMARK  195  A    between atoms: _490  and  _493
REMARK  196  A    between atoms: _493  and  _494
REMARK  197  A    between atoms: _494  and  _495
REMARK  198  A    between atoms: _495  and  _496
REMARK  199  A    between atoms: _505  and  _507
REMARK  200  A    between atoms: _507  and  _508
REMARK  201  A    between atoms: _507  and  _510
REMARK  202  A    between atoms: _510  and  _511
REMARK  203  A    between atoms: _516  and  _518
REMARK  204  A    between atoms: _518  and  _519
REMARK  205  A    between atoms: _518  and  _521
REMARK  206  A    between atoms: _521  and  _522
REMARK  207  A    between atoms: _527  and  _528
REMARK  208  A    between atoms: _530  and  _532
REMARK  209  A    between atoms: _532  and  _533
REMARK  210  A    between atoms: _532  and  _535
REMARK  211  A    between atoms: _535  and  _536
REMARK  212  A    between atoms: _536  and  _537
REMARK  213  A    between atoms: _537  and  _538
REMARK  214  A    between atoms: _538  and  _539
REMARK  215  A    between atoms: _543  and  _545
REMARK  216  A    between atoms: _545  and  _546
REMARK  217  A    between atoms: _545  and  _548
REMARK  218  A    between atoms: _548  and  _549
REMARK  219  A    between atoms: _551  and  _553
REMARK  220  A    between atoms: _553  and  _554
REMARK  221  A    between atoms: _553  and  _556
REMARK  222  A    between atoms: _556  and  _557
REMARK  223  A    between atoms: _560  and  _562
REMARK  224  A    between atoms: _562  and  _563
REMARK  225  A    between atoms: _562  and  _565
REMARK  226  A    between atoms: _565  and  _566
REMARK  227  A    between atoms: _566  and  _567
REMARK  228  A    between atoms: _570  and  _572
REMARK  229  A    between atoms: _572  and  _573
REMARK  230  A    between atoms: _576  and  _578
REMARK  231  A    between atoms: _578  and  _579
REMARK  232  A    between atoms: _578  and  _581
REMARK  233  A    between atoms: _581  and  _582
REMARK  234  A    between atoms: _584  and  _586
REMARK  235  A    between atoms: _586  and  _587
REMARK  236  A    between atoms: _589  and  _591
REMARK  237  A    between atoms: _591  and  _592
REMARK  238  A    between atoms: _591  and  _594
REMARK  239  A    between atoms: _594  and  _595
REMARK  240  A    between atoms: _598  and  _600
REMARK  241  A    between atoms: _600  and  _601
REMARK  242  A    between atoms: _603  and  _605
REMARK  243  A    between atoms: _605  and  _606
REMARK  244  A    between atoms: _605  and  _608
REMARK  245  A    between atoms: _608  and  _609
REMARK  246  A    between atoms: _614  and  _616
REMARK  247  A    between atoms: _616  and  _617
REMARK  248  A    between atoms: _616  and  _619
REMARK  249  A    between atoms: _619  and  _620
REMARK  250  A    between atoms: _620  and  _621
REMARK  251  A    between atoms: _628  and  _629
REMARK  252  A    between atoms: _629  and  _645
REMARK  253  A    between atoms: _630  and  _632
REMARK  254  A    between atoms: _632  and  _633
REMARK  255  A    between atoms: _633  and  _634
REMARK  256  A    between atoms: _638  and  _640
REMARK  257  A    between atoms: _640  and  _641
REMARK  258  A    between atoms: _640  and  _648
REMARK  259  A    between atoms: _641  and  _642
REMARK  260  A    between atoms: _642  and  _643
REMARK  261  A    between atoms: _643  and  _644
REMARK  262  A    between atoms: _644  and  _645
REMARK  263  A    between atoms: _650  and  _652
REMARK  264  A    between atoms: _652  and  _653
REMARK  265  A    between atoms: _652  and  _655
REMARK  266  A    between atoms: _655  and  _656
REMARK  267  A    between atoms: _659  and  _661
REMARK  268  A    between atoms: _661  and  _662
REMARK  269  A    between atoms: _664  and  _666
REMARK  270  A    between atoms: _666  and  _667
REMARK  271  A    between atoms: _670  and  _672
REMARK  272  A    between atoms: _672  and  _673
REMARK  273  A    between atoms: _672  and  _675
REMARK  274  A    between atoms: _675  and  _676
REMARK  275  A    between atoms: _679  and  _681
REMARK  276  A    between atoms: _681  and  _682
REMARK  277  A    between atoms: _681  and  _684
REMARK  278  A    between atoms: _684  and  _685
REMARK  279  A    between atoms: _690  and  _691
REMARK                            x       y       z     vdW  Elec       q    Type
REMARK                         _______ _______ _______ _____ _____    ______ ____
ROOT
ATOM      1  O   HOH     1      40.808  28.737  38.048  0.00  0.00    +0.000 OA
ENDROOT
TORSDOF 0
REMARK  Name = ../refined-set-2016/4eky/4eky_pocket.pdb
REMARK  279 active torsions:
REMARK  status: ('A' for Active; 'I' for Inactive)
REMARK    1  A    between atoms: _1  and  _3
REMARK    2  A    between atoms: _3  and  _4
REMARK    3  A    between atoms: _3  and  _6
REMARK    4  A    between atoms: _6  and  _7
REMARK    5  A    between atoms: _12  and  _13
REMARK    6  A    between atoms: _15  and  _17
REMARK    7  A    between atoms: _17  and  _18
REMARK    8  A    between atoms: _17  and  _20
REMARK    9  A    between atoms: _20  and  _21
REMARK   10  A    between atoms: _21  and  _22
REMARK   11  A    between atoms: _25  and  _27
REMARK   12  A    between atoms: _27  and  _28
REMARK   13  A    between atoms: _27  and  _30
REMARK   14  A    between atoms: _30  and  _31
REMARK   15  A    between atoms: _36  and  _37
REMARK   16  A    between atoms: _39  and  _41
REMARK   17  A    between atoms: _41  and  _42
REMARK   18  A    between atoms: _41  and  _44
REMARK   19  A    between atoms: _44  and  _45
REMARK   20  A    between atoms: _50  and  _52
REMARK   21  A    between atoms: _52  and  _53
REMARK   22  A    between atoms: _55  and  _57
REMARK   23  A    between atoms: _57  and  _58
REMARK   24  A    between atoms: _60  and  _62
REMARK   25  A    between atoms: _62  and  _63
REMARK   26  A    between atoms: _62  and  _65
REMARK   27  A    between atoms: _65  and  _66
REMARK   28  A    between atoms: _69  and  _71
REMARK   29  A    between atoms: _71  and  _72
REMARK   30  A    between atoms: _74  and  _76
REMARK   31  A    between atoms: _76  and  _77
REMARK   32  A    between atoms: _76  and  _79
REMARK   33  A    between atoms: _79  and  _80
REMARK   34  A    between atoms: _80  and  _81
REMARK   35  A    between atoms: _81  and  _82
REMARK   36  A    between atoms: _91  and  _93
REMARK   37  A    between atoms: _93  and  _94
REMARK   38  A    between atoms: _93  and  _96
REMARK   39  A    between atoms: _96  and  _97
REMARK   40  A    between atoms: _100  and  _102
REMARK   41  A    between atoms: _102  and  _103
REMARK   42  A    between atoms: _106  and  _108
REMARK   43  A    between atoms: _108  and  _109
REMARK   44  A    between atoms: _108  and  _111
REMARK   45  A    between atoms: _111  and  _112
REMARK   46  A    between atoms: _118  and  _120
REMARK   47  A    between atoms: _120  and  _121
REMARK   48  A    between atoms: _120  and  _123
REMARK   49  A    between atoms: _123  and  _124
REMARK   50  A    between atoms: _129  and  _131
REMARK   51  A    between atoms: _131  and  _132
REMARK   52  A    between atoms: _131  and  _134
REMARK   53  A    between atoms: _134  and  _135
REMARK   54  A    between atoms: _138  and  _140
REMARK   55  A    between atoms: _140  and  _141
REMARK   56  A    between atoms: _140  and  _143
REMARK   57  A    between atoms: _143  and  _144
REMARK   58  A    between atoms: _149  and  _151
REMARK   59  A    between atoms: _151  and  _152
REMARK   60  A    between atoms: _151  and  _154
REMARK   61  A    between atoms: _154  and  _155
REMARK   62  A    between atoms: _161  and  _163
REMARK   63  A    between atoms: _163  and  _164
REMARK   64  A    between atoms: _163  and  _166
REMARK   65  A    between atoms: _166  and  _167
REMARK   66  A    between atoms: _173  and  _175
REMARK   67  A    between atoms: _175  and  _176
REMARK   68  A    between atoms: _175  and  _178
REMARK   69  A    between atoms: _178  and  _179
REMARK   70  A    between atoms: _179  and  _180
REMARK   71  A    between atoms: _180  and  _181
REMARK   72  A    between atoms: _190  and  _192
REMARK   73  A    between atoms: _192  and  _193
REMARK   74  A    between atoms: _192  and  _195
REMARK   75  A    between atoms: _195  and  _196
REMARK   76  A    between atoms: _196  and  _197
REMARK   77  A    between atoms: _200  and  _202
REMARK   78  A    between atoms: _202  and  _203
REMARK   79  A    between atoms: _202  and  _205
REMARK   80  A    between atoms: _205  and  _206
REMARK   81  A    between atoms: _211  and  _213
REMARK   82  A    between atoms: _213  and  _214
REMARK   83  A    between atoms: _213  and  _216
REMARK   84  A    between atoms: _216  and  _217
REMARK   85  A    between atoms: _220  and  _222
REMARK   86  A    between atoms: _222  and  _223
REMARK   87  A    between atoms: _222  and  _225
REMARK   88  A    between atoms: _225  and  _226
REMARK   89  A    between atoms: _229  and  _231
REMARK   90  A    between atoms: _231  and  _232
REMARK   91  A    between atoms: _231  and  _234
REMARK   92  A    between atoms: _234  and  _235
REMARK   93  A    between atoms: _241  and  _242
REMARK   94  A    between atoms: _247  and  _249
REMARK   95  A    between atoms: _249  and  _250
REMARK   96  A    between atoms: _249  and  _252
REMARK   97  A    between atoms: _252  and  _253
REMARK   98  A    between atoms: _258  and  _259
REMARK   99  A    between atoms: _261  and  _263
REMARK  100  A    between atoms: _263  and  _264
REMARK  101  A    between atoms: _263  and  _266
REMARK  102  A    between atoms: _266  and  _267
REMARK  103  A    between atoms: _270  and  _272
REMARK  104  A    between atoms: _272  and  _273
REMARK  105  A    between atoms: _272  and  _275
REMARK  106  A    between atoms: _275  and  _276
REMARK  107  A    between atoms: _281  and  _283
REMARK  108  A    between atoms: _283  and  _284
REMARK  109  A    between atoms: _283  and  _286
REMARK  110  A    between atoms: _286  and  _287
REMARK  111  A    between atoms: _292  and  _294
REMARK  112  A    between atoms: _294  and  _295
REMARK  113  A    between atoms: _294  and  _297
REMARK  114  A    between atoms: _297  and  _298
REMARK  115  A    between atoms: _301  and  _303
REMARK  116  A    between atoms: _303  and  _304
REMARK  117  A    between atoms: _303  and  _306
REMARK  118  A    between atoms: _309  and  _311
REMARK  119  A    between atoms: _311  and  _312
REMARK  120  A    between atoms: _311  and  _314
REMARK  121  A    between atoms: _314  and  _315
REMARK  122  A    between atoms: _319  and  _320
REMARK  123  A    between atoms: _325  and  _327
REMARK  124  A    between atoms: _327  and  _328
REMARK  125  A    between atoms: _327  and  _330
REMARK  126  A    between atoms: _330  and  _331
REMARK  127  A    between atoms: _331  and  _332
REMARK  128  A    between atoms: _335  and  _337
REMARK  129  A    between atoms: _337  and  _338
REMARK  130  A    between atoms: _341  and  _343
REMARK  131  A    between atoms: _343  and  _344
REMARK  132  A    between atoms: _343  and  _346
REMARK  133  A    between atoms: _346  and  _347
REMARK  134  A    between atoms: _350  and  _352
REMARK  135  A    between atoms: _352  and  _353
REMARK  136  A    between atoms: _352  and  _355
REMARK  137  A    between atoms: _355  and  _356
REMARK  138  A    between atoms: _356  and  _357
REMARK  139  A    between atoms: _360  and  _362
REMARK  140  A    between atoms: _362  and  _363
REMARK  141  A    between atoms: _362  and  _365
REMARK  142  A    between atoms: _365  and  _366
REMARK  143  A    between atoms: _366  and  _367
REMARK  144  A    between atoms: _369  and  _371
REMARK  145  A    between atoms: _371  and  _372
REMARK  146  A    between atoms: _375  and  _377
REMARK  147  A    between atoms: _377  and  _378
REMARK  148  A    between atoms: _377  and  _380
REMARK  149  A    between atoms: _380  and  _381
REMARK  150  A    between atoms: _386  and  _388
REMARK  151  A    between atoms: _388  and  _389
REMARK  152  A    between atoms: _391  and  _393
REMARK  153  A    between atoms: _393  and  _394
REMARK  154  A    between atoms: _393  and  _396
REMARK  155  A    between atoms: _399  and  _401
REMARK  156  A    between atoms: _401  and  _402
REMARK  157  A    between atoms: _405  and  _407
REMARK  158  A    between atoms: _407  and  _408
REMARK  159  A    between atoms: _407  and  _410
REMARK  160  A    between atoms: _410  and  _411
REMARK  161  A    between atoms: _416  and  _418
REMARK  162  A    between atoms: _418  and  _419
REMARK  163  A    between atoms: _418  and  _421
REMARK  164  A    between atoms: _421  and  _422
REMARK  165  A    between atoms: _428  and  _430
REMARK  166  A    between atoms: _430  and  _431
REMARK  167  A    between atoms: _430  and  _433
REMARK  168  A    between atoms: _433  and  _434
REMARK  169  A    between atoms: _434  and  _435
REMARK  170  A    between atoms: _435  and  _436
REMARK  171  A    between atoms: _436  and  _437
REMARK  172  A    between atoms: _441  and  _443
REMARK  173  A    between atoms: _443  and  _444
REMARK  174  A    between atoms: _443  and  _446
REMARK  175  A    between atoms: _446  and  _447
REMARK  176  A    between atoms: _450  and  _452
REMARK  177  A    between atoms: _452  and  _453
REMARK  178  A    between atoms: _452  and  _455
REMARK  179  A    between atoms: _455  and  _456
REMARK  180  A    between atoms: _461  and  _463
REMARK  181  A    between atoms: _463  and  _464
REMARK  182  A    between atoms: _466  and  _468
REMARK  183  A    between atoms: _468  and  _469
REMARK  184  A    between atoms: _468  and  _471
REMARK  185  A    between atoms: _471  and  _472
REMARK  186  A    between atoms: _475  and  _477
REMARK  187  A    between atoms: _477  and  _478
REMARK  188  A    between atoms: _477  and  _480
REMARK  189  A    between atoms: _480  and  _481
REMARK  190  A    between atoms: _481  and  _482
REMARK  191  A    between atoms: _482  and  _483
REMARK  192  A    between atoms: _483  and  _484
REMARK  193  A    between atoms: _488  and  _490
REMARK  194  A    between atoms: _490  and  _491
REMARK  195  A    between atoms: _490  and  _493
REMARK  196  A    between atoms: _493  and  _494
REMARK  197  A    between atoms: _494  and  _495
REMARK  198  A    between atoms: _495  and  _496
REMARK  199  A    between atoms: _505  and  _507
REMARK  200  A    between atoms: _507  and  _508
REMARK  201  A    between atoms: _507  and  _510
REMARK  202  A    between atoms: _510  and  _511
REMARK  203  A    between atoms: _516  and  _518
REMARK  204  A    between atoms: _518  and  _519
REMARK  205  A    between atoms: _518  and  _521
REMARK  206  A    between atoms: _521  and  _522
REMARK  207  A    between atoms: _527  and  _528
REMARK  208  A    between atoms: _530  and  _532
REMARK  209  A    between atoms: _532  and  _533
REMARK  210  A    between atoms: _532  and  _535
REMARK  211  A    between atoms: _535  and  _536
REMARK  212  A    between atoms: _536  and  _537
REMARK  213  A    between atoms: _537  and  _538
REMARK  214  A    between atoms: _538  and  _539
REMARK  215  A    between atoms: _543  and  _545
REMARK  216  A    between atoms: _545  and  _546
REMARK  217  A    between atoms: _545  and  _548
REMARK  218  A    between atoms: _548  and  _549
REMARK  219  A    between atoms: _551  and  _553
REMARK  220  A    between atoms: _553  and  _554
REMARK  221  A    between atoms: _553  and  _556
REMARK  222  A    between atoms: _556  and  _557
REMARK  223  A    between atoms: _560  and  _562
REMARK  224  A    between atoms: _562  and  _563
REMARK  225  A    between atoms: _562  and  _565
REMARK  226  A    between atoms: _565  and  _566
REMARK  227  A    between atoms: _566  and  _567
REMARK  228  A    between atoms: _570  and  _572
REMARK  229  A    between atoms: _572  and  _573
REMARK  230  A    between atoms: _576  and  _578
REMARK  231  A    between atoms: _578  and  _579
REMARK  232  A    between atoms: _578  and  _581
REMARK  233  A    between atoms: _581  and  _582
REMARK  234  A    between atoms: _584  and  _586
REMARK  235  A    between atoms: _586  and  _587
REMARK  236  A    between atoms: _589  and  _591
REMARK  237  A    between atoms: _591  and  _592
REMARK  238  A    between atoms: _591  and  _594
REMARK  239  A    between atoms: _594  and  _595
REMARK  240  A    between atoms: _598  and  _600
REMARK  241  A    between atoms: _600  and  _601
REMARK  242  A    between atoms: _603  and  _605
REMARK  243  A    between atoms: _605  and  _606
REMARK  244  A    between atoms: _605  and  _608
REMARK  245  A    between atoms: _608  and  _609
REMARK  246  A    between atoms: _614  and  _616
REMARK  247  A    between atoms: _616  and  _617
REMARK  248  A    between atoms: _616  and  _619
REMARK  249  A    between atoms: _619  and  _620
REMARK  250  A    between atoms: _620  and  _621
REMARK  251  A    between atoms: _628  and  _629
REMARK  252  A    between atoms: _629  and  _645
REMARK  253  A    between atoms: _630  and  _632
REMARK  254  A    between atoms: _632  and  _633
REMARK  255  A    between atoms: _633  and  _634
REMARK  256  A    between atoms: _638  and  _640
REMARK  257  A    between atoms: _640  and  _641
REMARK  258  A    between atoms: _640  and  _648
REMARK  259  A    between atoms: _641  and  _642
REMARK  260  A    between atoms: _642  and  _643
REMARK  261  A    between atoms: _643  and  _644
REMARK  262  A    between atoms: _644  and  _645
REMARK  263  A    between atoms: _650  and  _652
REMARK  264  A    between atoms: _652  and  _653
REMARK  265  A    between atoms: _652  and  _655
REMARK  266  A    between atoms: _655  and  _656
REMARK  267  A    between atoms: _659  and  _661
REMARK  268  A    between atoms: _661  and  _662
REMARK  269  A    between atoms: _664  and  _666
REMARK  270  A    between atoms: _666  and  _667
REMARK  271  A    between atoms: _670  and  _672
REMARK  272  A    between atoms: _672  and  _673
REMARK  273  A    between atoms: _672  and  _675
REMARK  274  A    between atoms: _675  and  _676
REMARK  275  A    between atoms: _679  and  _681
REMARK  276  A    between atoms: _681  and  _682
REMARK  277  A    between atoms: _681  and  _684
REMARK  278  A    between atoms: _684  and  _685
REMARK  279  A    between atoms: _690  and  _691
REMARK                            x       y       z     vdW  Elec       q    Type
REMARK                         _______ _______ _______ _____ _____    ______ ____
ROOT
ATOM      1  O   HOH     1      34.482  25.754  34.554  0.00  0.00    +0.000 OA
ENDROOT
TORSDOF 0
REMARK  Name = ../refined-set-2016/4eky/4eky_pocket.pdb
REMARK  279 active torsions:
REMARK  status: ('A' for Active; 'I' for Inactive)
REMARK    1  A    between atoms: _1  and  _3
REMARK    2  A    between atoms: _3  and  _4
REMARK    3  A    between atoms: _3  and  _6
REMARK    4  A    between atoms: _6  and  _7
REMARK    5  A    between atoms: _12  and  _13
REMARK    6  A    between atoms: _15  and  _17
REMARK    7  A    between atoms: _17  and  _18
REMARK    8  A    between atoms: _17  and  _20
REMARK    9  A    between atoms: _20  and  _21
REMARK   10  A    between atoms: _21  and  _22
REMARK   11  A    between atoms: _25  and  _27
REMARK   12  A    between atoms: _27  and  _28
REMARK   13  A    between atoms: _27  and  _30
REMARK   14  A    between atoms: _30  and  _31
REMARK   15  A    between atoms: _36  and  _37
REMARK   16  A    between atoms: _39  and  _41
REMARK   17  A    between atoms: _41  and  _42
REMARK   18  A    between atoms: _41  and  _44
REMARK   19  A    between atoms: _44  and  _45
REMARK   20  A    between atoms: _50  and  _52
REMARK   21  A    between atoms: _52  and  _53
REMARK   22  A    between atoms: _55  and  _57
REMARK   23  A    between atoms: _57  and  _58
REMARK   24  A    between atoms: _60  and  _62
REMARK   25  A    between atoms: _62  and  _63
REMARK   26  A    between atoms: _62  and  _65
REMARK   27  A    between atoms: _65  and  _66
REMARK   28  A    between atoms: _69  and  _71
REMARK   29  A    between atoms: _71  and  _72
REMARK   30  A    between atoms: _74  and  _76
REMARK   31  A    between atoms: _76  and  _77
REMARK   32  A    between atoms: _76  and  _79
REMARK   33  A    between atoms: _79  and  _80
REMARK   34  A    between atoms: _80  and  _81
REMARK   35  A    between atoms: _81  and  _82
REMARK   36  A    between atoms: _91  and  _93
REMARK   37  A    between atoms: _93  and  _94
REMARK   38  A    between atoms: _93  and  _96
REMARK   39  A    between atoms: _96  and  _97
REMARK   40  A    between atoms: _100  and  _102
REMARK   41  A    between atoms: _102  and  _103
REMARK   42  A    between atoms: _106  and  _108
REMARK   43  A    between atoms: _108  and  _109
REMARK   44  A    between atoms: _108  and  _111
REMARK   45  A    between atoms: _111  and  _112
REMARK   46  A    between atoms: _118  and  _120
REMARK   47  A    between atoms: _120  and  _121
REMARK   48  A    between atoms: _120  and  _123
REMARK   49  A    between atoms: _123  and  _124
REMARK   50  A    between atoms: _129  and  _131
REMARK   51  A    between atoms: _131  and  _132
REMARK   52  A    between atoms: _131  and  _134
REMARK   53  A    between atoms: _134  and  _135
REMARK   54  A    between atoms: _138  and  _140
REMARK   55  A    between atoms: _140  and  _141
REMARK   56  A    between atoms: _140  and  _143
REMARK   57  A    between atoms: _143  and  _144
REMARK   58  A    between atoms: _149  and  _151
REMARK   59  A    between atoms: _151  and  _152
REMARK   60  A    between atoms: _151  and  _154
REMARK   61  A    between atoms: _154  and  _155
REMARK   62  A    between atoms: _161  and  _163
REMARK   63  A    between atoms: _163  and  _164
REMARK   64  A    between atoms: _163  and  _166
REMARK   65  A    between atoms: _166  and  _167
REMARK   66  A    between atoms: _173  and  _175
REMARK   67  A    between atoms: _175  and  _176
REMARK   68  A    between atoms: _175  and  _178
REMARK   69  A    between atoms: _178  and  _179
REMARK   70  A    between atoms: _179  and  _180
REMARK   71  A    between atoms: _180  and  _181
REMARK   72  A    between atoms: _190  and  _192
REMARK   73  A    between atoms: _192  and  _193
REMARK   74  A    between atoms: _192  and  _195
REMARK   75  A    between atoms: _195  and  _196
REMARK   76  A    between atoms: _196  and  _197
REMARK   77  A    between atoms: _200  and  _202
REMARK   78  A    between atoms: _202  and  _203
REMARK   79  A    between atoms: _202  and  _205
REMARK   80  A    between atoms: _205  and  _206
REMARK   81  A    between atoms: _211  and  _213
REMARK   82  A    between atoms: _213  and  _214
REMARK   83  A    between atoms: _213  and  _216
REMARK   84  A    between atoms: _216  and  _217
REMARK   85  A    between atoms: _220  and  _222
REMARK   86  A    between atoms: _222  and  _223
REMARK   87  A    between atoms: _222  and  _225
REMARK   88  A    between atoms: _225  and  _226
REMARK   89  A    between atoms: _229  and  _231
REMARK   90  A    between atoms: _231  and  _232
REMARK   91  A    between atoms: _231  and  _234
REMARK   92  A    between atoms: _234  and  _235
REMARK   93  A    between atoms: _241  and  _242
REMARK   94  A    between atoms: _247  and  _249
REMARK   95  A    between atoms: _249  and  _250
REMARK   96  A    between atoms: _249  and  _252
REMARK   97  A    between atoms: _252  and  _253
REMARK   98  A    between atoms: _258  and  _259
REMARK   99  A    between atoms: _261  and  _263
REMARK  100  A    between atoms: _263  and  _264
REMARK  101  A    between atoms: _263  and  _266
REMARK  102  A    between atoms: _266  and  _267
REMARK  103  A    between atoms: _270  and  _272
REMARK  104  A    between atoms: _272  and  _273
REMARK  105  A    between atoms: _272  and  _275
REMARK  106  A    between atoms: _275  and  _276
REMARK  107  A    between atoms: _281  and  _283
REMARK  108  A    between atoms: _283  and  _284
REMARK  109  A    between atoms: _283  and  _286
REMARK  110  A    between atoms: _286  and  _287
REMARK  111  A    between atoms: _292  and  _294
REMARK  112  A    between atoms: _294  and  _295
REMARK  113  A    between atoms: _294  and  _297
REMARK  114  A    between atoms: _297  and  _298
REMARK  115  A    between atoms: _301  and  _303
REMARK  116  A    between atoms: _303  and  _304
REMARK  117  A    between atoms: _303  and  _306
REMARK  118  A    between atoms: _309  and  _311
REMARK  119  A    between atoms: _311  and  _312
REMARK  120  A    between atoms: _311  and  _314
REMARK  121  A    between atoms: _314  and  _315
REMARK  122  A    between atoms: _319  and  _320
REMARK  123  A    between atoms: _325  and  _327
REMARK  124  A    between atoms: _327  and  _328
REMARK  125  A    between atoms: _327  and  _330
REMARK  126  A    between atoms: _330  and  _331
REMARK  127  A    between atoms: _331  and  _332
REMARK  128  A    between atoms: _335  and  _337
REMARK  129  A    between atoms: _337  and  _338
REMARK  130  A    between atoms: _341  and  _343
REMARK  131  A    between atoms: _343  and  _344
REMARK  132  A    between atoms: _343  and  _346
REMARK  133  A    between atoms: _346  and  _347
REMARK  134  A    between atoms: _350  and  _352
REMARK  135  A    between atoms: _352  and  _353
REMARK  136  A    between atoms: _352  and  _355
REMARK  137  A    between atoms: _355  and  _356
REMARK  138  A    between atoms: _356  and  _357
REMARK  139  A    between atoms: _360  and  _362
REMARK  140  A    between atoms: _362  and  _363
REMARK  141  A    between atoms: _362  and  _365
REMARK  142  A    between atoms: _365  and  _366
REMARK  143  A    between atoms: _366  and  _367
REMARK  144  A    between atoms: _369  and  _371
REMARK  145  A    between atoms: _371  and  _372
REMARK  146  A    between atoms: _375  and  _377
REMARK  147  A    between atoms: _377  and  _378
REMARK  148  A    between atoms: _377  and  _380
REMARK  149  A    between atoms: _380  and  _381
REMARK  150  A    between atoms: _386  and  _388
REMARK  151  A    between atoms: _388  and  _389
REMARK  152  A    between atoms: _391  and  _393
REMARK  153  A    between atoms: _393  and  _394
REMARK  154  A    between atoms: _393  and  _396
REMARK  155  A    between atoms: _399  and  _401
REMARK  156  A    between atoms: _401  and  _402
REMARK  157  A    between atoms: _405  and  _407
REMARK  158  A    between atoms: _407  and  _408
REMARK  159  A    between atoms: _407  and  _410
REMARK  160  A    between atoms: _410  and  _411
REMARK  161  A    between atoms: _416  and  _418
REMARK  162  A    between atoms: _418  and  _419
REMARK  163  A    between atoms: _418  and  _421
REMARK  164  A    between atoms: _421  and  _422
REMARK  165  A    between atoms: _428  and  _430
REMARK  166  A    between atoms: _430  and  _431
REMARK  167  A    between atoms: _430  and  _433
REMARK  168  A    between atoms: _433  and  _434
REMARK  169  A    between atoms: _434  and  _435
REMARK  170  A    between atoms: _435  and  _436
REMARK  171  A    between atoms: _436  and  _437
REMARK  172  A    between atoms: _441  and  _443
REMARK  173  A    between atoms: _443  and  _444
REMARK  174  A    between atoms: _443  and  _446
REMARK  175  A    between atoms: _446  and  _447
REMARK  176  A    between atoms: _450  and  _452
REMARK  177  A    between atoms: _452  and  _453
REMARK  178  A    between atoms: _452  and  _455
REMARK  179  A    between atoms: _455  and  _456
REMARK  180  A    between atoms: _461  and  _463
REMARK  181  A    between atoms: _463  and  _464
REMARK  182  A    between atoms: _466  and  _468
REMARK  183  A    between atoms: _468  and  _469
REMARK  184  A    between atoms: _468  and  _471
REMARK  185  A    between atoms: _471  and  _472
REMARK  186  A    between atoms: _475  and  _477
REMARK  187  A    between atoms: _477  and  _478
REMARK  188  A    between atoms: _477  and  _480
REMARK  189  A    between atoms: _480  and  _481
REMARK  190  A    between atoms: _481  and  _482
REMARK  191  A    between atoms: _482  and  _483
REMARK  192  A    between atoms: _483  and  _484
REMARK  193  A    between atoms: _488  and  _490
REMARK  194  A    between atoms: _490  and  _491
REMARK  195  A    between atoms: _490  and  _493
REMARK  196  A    between atoms: _493  and  _494
REMARK  197  A    between atoms: _494  and  _495
REMARK  198  A    between atoms: _495  and  _496
REMARK  199  A    between atoms: _505  and  _507
REMARK  200  A    between atoms: _507  and  _508
REMARK  201  A    between atoms: _507  and  _510
REMARK  202  A    between atoms: _510  and  _511
REMARK  203  A    between atoms: _516  and  _518
REMARK  204  A    between atoms: _518  and  _519
REMARK  205  A    between atoms: _518  and  _521
REMARK  206  A    between atoms: _521  and  _522
REMARK  207  A    between atoms: _527  and  _528
REMARK  208  A    between atoms: _530  and  _532
REMARK  209  A    between atoms: _532  and  _533
REMARK  210  A    between atoms: _532  and  _535
REMARK  211  A    between atoms: _535  and  _536
REMARK  212  A    between atoms: _536  and  _537
REMARK  213  A    between atoms: _537  and  _538
REMARK  214  A    between atoms: _538  and  _539
REMARK  215  A    between atoms: _543  and  _545
REMARK  216  A    between atoms: _545  and  _546
REMARK  217  A    between atoms: _545  and  _548
REMARK  218  A    between atoms: _548  and  _549
REMARK  219  A    between atoms: _551  and  _553
REMARK  220  A    between atoms: _553  and  _554
REMARK  221  A    between atoms: _553  and  _556
REMARK  222  A    between atoms: _556  and  _557
REMARK  223  A    between atoms: _560  and  _562
REMARK  224  A    between atoms: _562  and  _563
REMARK  225  A    between atoms: _562  and  _565
REMARK  226  A    between atoms: _565  and  _566
REMARK  227  A    between atoms: _566  and  _567
REMARK  228  A    between atoms: _570  and  _572
REMARK  229  A    between atoms: _572  and  _573
REMARK  230  A    between atoms: _576  and  _578
REMARK  231  A    between atoms: _578  and  _579
REMARK  232  A    between atoms: _578  and  _581
REMARK  233  A    between atoms: _581  and  _582
REMARK  234  A    between atoms: _584  and  _586
REMARK  235  A    between atoms: _586  and  _587
REMARK  236  A    between atoms: _589  and  _591
REMARK  237  A    between atoms: _591  and  _592
REMARK  238  A    between atoms: _591  and  _594
REMARK  239  A    between atoms: _594  and  _595
REMARK  240  A    between atoms: _598  and  _600
REMARK  241  A    between atoms: _600  and  _601
REMARK  242  A    between atoms: _603  and  _605
REMARK  243  A    between atoms: _605  and  _606
REMARK  244  A    between atoms: _605  and  _608
REMARK  245  A    between atoms: _608  and  _609
REMARK  246  A    between atoms: _614  and  _616
REMARK  247  A    between atoms: _616  and  _617
REMARK  248  A    between atoms: _616  and  _619
REMARK  249  A    between atoms: _619  and  _620
REMARK  250  A    between atoms: _620  and  _621
REMARK  251  A    between atoms: _628  and  _629
REMARK  252  A    between atoms: _629  and  _645
REMARK  253  A    between atoms: _630  and  _632
REMARK  254  A    between atoms: _632  and  _633
REMARK  255  A    between atoms: _633  and  _634
REMARK  256  A    between atoms: _638  and  _640
REMARK  257  A    between atoms: _640  and  _641
REMARK  258  A    between atoms: _640  and  _648
REMARK  259  A    between atoms: _641  and  _642
REMARK  260  A    between atoms: _642  and  _643
REMARK  261  A    between atoms: _643  and  _644
REMARK  262  A    between atoms: _644  and  _645
REMARK  263  A    between atoms: _650  and  _652
REMARK  264  A    between atoms: _652  and  _653
REMARK  265  A    between atoms: _652  and  _655
REMARK  266  A    between atoms: _655  and  _656
REMARK  267  A    between atoms: _659  and  _661
REMARK  268  A    between atoms: _661  and  _662
REMARK  269  A    between atoms: _664  and  _666
REMARK  270  A    between atoms: _666  and  _667
REMARK  271  A    between atoms: _670  and  _672
REMARK  272  A    between atoms: _672  and  _673
REMARK  273  A    between atoms: _672  and  _675
REMARK  274  A    between atoms: _675  and  _676
REMARK  275  A    between atoms: _679  and  _681
REMARK  276  A    between atoms: _681  and  _682
REMARK  277  A    between atoms: _681  and  _684
REMARK  278  A    between atoms: _684  and  _685
REMARK  279  A    between atoms: _690  and  _691
REMARK                            x       y       z     vdW  Elec       q    Type
REMARK                         _______ _______ _______ _____ _____    ______ ____
ROOT
ATOM      1  O   HOH     1      44.494  22.561  32.186  0.00  0.00    +0.000 OA
ENDROOT
TORSDOF 0
