REMARK  Name = ../refined-set-2016/3o99/3o99_pocket.pdb
REMARK  217 active torsions:
REMARK  status: ('A' for Active; 'I' for Inactive)
REMARK    1  A    between atoms: _1  and  _3
REMARK    2  A    between atoms: _3  and  _4
REMARK    3  A    between atoms: _3  and  _6
REMARK    4  A    between atoms: _6  and  _7
REMARK    5  A    between atoms: _7  and  _8
REMARK    6  A    between atoms: _8  and  _9
REMARK    7  A    between atoms: _18  and  _20
REMARK    8  A    between atoms: _20  and  _21
REMARK    9  A    between atoms: _20  and  _23
REMARK   10  A    between atoms: _23  and  _24
REMARK   11  A    between atoms: _27  and  _29
REMARK   12  A    between atoms: _29  and  _30
REMARK   13  A    between atoms: _29  and  _32
REMARK   14  A    between atoms: _32  and  _33
REMARK   15  A    between atoms: _36  and  _38
REMARK   16  A    between atoms: _38  and  _39
REMARK   17  A    between atoms: _38  and  _41
REMARK   18  A    between atoms: _41  and  _42
REMARK   19  A    between atoms: _45  and  _47
REMARK   20  A    between atoms: _47  and  _48
REMARK   21  A    between atoms: _47  and  _50
REMARK   22  A    between atoms: _50  and  _51
REMARK   23  A    between atoms: _54  and  _56
REMARK   24  A    between atoms: _56  and  _57
REMARK   25  A    between atoms: _59  and  _61
REMARK   26  A    between atoms: _61  and  _62
REMARK   27  A    between atoms: _65  and  _67
REMARK   28  A    between atoms: _67  and  _68
REMARK   29  A    between atoms: _67  and  _70
REMARK   30  A    between atoms: _70  and  _71
REMARK   31  A    between atoms: _74  and  _76
REMARK   32  A    between atoms: _76  and  _77
REMARK   33  A    between atoms: _76  and  _79
REMARK   34  A    between atoms: _79  and  _80
REMARK   35  A    between atoms: _83  and  _85
REMARK   36  A    between atoms: _85  and  _86
REMARK   37  A    between atoms: _85  and  _88
REMARK   38  A    between atoms: _88  and  _89
REMARK   39  A    between atoms: _92  and  _94
REMARK   40  A    between atoms: _94  and  _95
REMARK   41  A    between atoms: _94  and  _97
REMARK   42  A    between atoms: _100  and  _102
REMARK   43  A    between atoms: _102  and  _103
REMARK   44  A    between atoms: _102  and  _105
REMARK   45  A    between atoms: _105  and  _106
REMARK   46  A    between atoms: _109  and  _111
REMARK   47  A    between atoms: _111  and  _112
REMARK   48  A    between atoms: _114  and  _116
REMARK   49  A    between atoms: _116  and  _117
REMARK   50  A    between atoms: _119  and  _121
REMARK   51  A    between atoms: _121  and  _122
REMARK   52  A    between atoms: _121  and  _124
REMARK   53  A    between atoms: _124  and  _125
REMARK   54  A    between atoms: _128  and  _130
REMARK   55  A    between atoms: _130  and  _131
REMARK   56  A    between atoms: _133  and  _135
REMARK   57  A    between atoms: _135  and  _136
REMARK   58  A    between atoms: _138  and  _140
REMARK   59  A    between atoms: _140  and  _141
REMARK   60  A    between atoms: _140  and  _143
REMARK   61  A    between atoms: _143  and  _144
REMARK   62  A    between atoms: _147  and  _149
REMARK   63  A    between atoms: _149  and  _150
REMARK   64  A    between atoms: _149  and  _152
REMARK   65  A    between atoms: _152  and  _153
REMARK   66  A    between atoms: _156  and  _158
REMARK   67  A    between atoms: _158  and  _159
REMARK   68  A    between atoms: _158  and  _161
REMARK   69  A    between atoms: _161  and  _162
REMARK   70  A    between atoms: _166  and  _167
REMARK   71  A    between atoms: _172  and  _174
REMARK   72  A    between atoms: _174  and  _175
REMARK   73  A    between atoms: _174  and  _177
REMARK   74  A    between atoms: _180  and  _182
REMARK   75  A    between atoms: _182  and  _183
REMARK   76  A    between atoms: _182  and  _185
REMARK   77  A    between atoms: _185  and  _186
REMARK   78  A    between atoms: _191  and  _193
REMARK   79  A    between atoms: _193  and  _194
REMARK   80  A    between atoms: _193  and  _196
REMARK   81  A    between atoms: _196  and  _197
REMARK   82  A    between atoms: _200  and  _202
REMARK   83  A    between atoms: _202  and  _203
REMARK   84  A    between atoms: _202  and  _205
REMARK   85  A    between atoms: _205  and  _206
REMARK   86  A    between atoms: _209  and  _211
REMARK   87  A    between atoms: _211  and  _212
REMARK   88  A    between atoms: _214  and  _216
REMARK   89  A    between atoms: _216  and  _217
REMARK   90  A    between atoms: _216  and  _219
REMARK   91  A    between atoms: _219  and  _220
REMARK   92  A    between atoms: _220  and  _221
REMARK   93  A    between atoms: _221  and  _222
REMARK   94  A    between atoms: _231  and  _233
REMARK   95  A    between atoms: _233  and  _234
REMARK   96  A    between atoms: _233  and  _236
REMARK   97  A    between atoms: _236  and  _237
REMARK   98  A    between atoms: _242  and  _244
REMARK   99  A    between atoms: _244  and  _245
REMARK  100  A    between atoms: _244  and  _247
REMARK  101  A    between atoms: _247  and  _248
REMARK  102  A    between atoms: _248  and  _249
REMARK  103  A    between atoms: _249  and  _250
REMARK  104  A    between atoms: _259  and  _261
REMARK  105  A    between atoms: _261  and  _262
REMARK  106  A    between atoms: _261  and  _264
REMARK  107  A    between atoms: _264  and  _265
REMARK  108  A    between atoms: _268  and  _270
REMARK  109  A    between atoms: _270  and  _271
REMARK  110  A    between atoms: _270  and  _273
REMARK  111  A    between atoms: _273  and  _274
REMARK  112  A    between atoms: _277  and  _279
REMARK  113  A    between atoms: _279  and  _280
REMARK  114  A    between atoms: _279  and  _282
REMARK  115  A    between atoms: _282  and  _283
REMARK  116  A    between atoms: _286  and  _288
REMARK  117  A    between atoms: _288  and  _289
REMARK  118  A    between atoms: _288  and  _291
REMARK  119  A    between atoms: _291  and  _292
REMARK  120  A    between atoms: _295  and  _297
REMARK  121  A    between atoms: _297  and  _298
REMARK  122  A    between atoms: _300  and  _302
REMARK  123  A    between atoms: _302  and  _303
REMARK  124  A    between atoms: _306  and  _308
REMARK  125  A    between atoms: _308  and  _309
REMARK  126  A    between atoms: _308  and  _311
REMARK  127  A    between atoms: _311  and  _312
REMARK  128  A    between atoms: _315  and  _317
REMARK  129  A    between atoms: _317  and  _318
REMARK  130  A    between atoms: _317  and  _320
REMARK  131  A    between atoms: _320  and  _321
REMARK  132  A    between atoms: _324  and  _326
REMARK  133  A    between atoms: _326  and  _327
REMARK  134  A    between atoms: _326  and  _329
REMARK  135  A    between atoms: _329  and  _330
REMARK  136  A    between atoms: _333  and  _335
REMARK  137  A    between atoms: _335  and  _336
REMARK  138  A    between atoms: _335  and  _338
REMARK  139  A    between atoms: _341  and  _343
REMARK  140  A    between atoms: _343  and  _344
REMARK  141  A    between atoms: _343  and  _346
REMARK  142  A    between atoms: _346  and  _347
REMARK  143  A    between atoms: _350  and  _352
REMARK  144  A    between atoms: _352  and  _353
REMARK  145  A    between atoms: _352  and  _355
REMARK  146  A    between atoms: _355  and  _356
REMARK  147  A    between atoms: _356  and  _357
REMARK  148  A    between atoms: _357  and  _358
REMARK  149  A    between atoms: _358  and  _359
REMARK  150  A    between atoms: _363  and  _365
REMARK  151  A    between atoms: _365  and  _366
REMARK  152  A    between atoms: _365  and  _368
REMARK  153  A    between atoms: _368  and  _369
REMARK  154  A    between atoms: _369  and  _370
REMARK  155  A    between atoms: _372  and  _374
REMARK  156  A    between atoms: _374  and  _375
REMARK  157  A    between atoms: _374  and  _377
REMARK  158  A    between atoms: _377  and  _378
REMARK  159  A    between atoms: _381  and  _383
REMARK  160  A    between atoms: _383  and  _384
REMARK  161  A    between atoms: _386  and  _388
REMARK  162  A    between atoms: _388  and  _389
REMARK  163  A    between atoms: _391  and  _393
REMARK  164  A    between atoms: _393  and  _394
REMARK  165  A    between atoms: _393  and  _396
REMARK  166  A    between atoms: _396  and  _397
REMARK  167  A    between atoms: _400  and  _402
REMARK  168  A    between atoms: _402  and  _403
REMARK  169  A    between atoms: _405  and  _407
REMARK  170  A    between atoms: _407  and  _408
REMARK  171  A    between atoms: _410  and  _412
REMARK  172  A    between atoms: _412  and  _413
REMARK  173  A    between atoms: _412  and  _415
REMARK  174  A    between atoms: _415  and  _416
REMARK  175  A    between atoms: _422  and  _424
REMARK  176  A    between atoms: _424  and  _425
REMARK  177  A    between atoms: _424  and  _427
REMARK  178  A    between atoms: _427  and  _428
REMARK  179  A    between atoms: _431  and  _433
REMARK  180  A    between atoms: _433  and  _434
REMARK  181  A    between atoms: _433  and  _436
REMARK  182  A    between atoms: _439  and  _441
REMARK  183  A    between atoms: _441  and  _442
REMARK  184  A    between atoms: _441  and  _444
REMARK  185  A    between atoms: _444  and  _445
REMARK  186  A    between atoms: _448  and  _450
REMARK  187  A    between atoms: _450  and  _451
REMARK  188  A    between atoms: _450  and  _453
REMARK  189  A    between atoms: _453  and  _454
REMARK  190  A    between atoms: _458  and  _459
REMARK  191  A    between atoms: _464  and  _466
REMARK  192  A    between atoms: _466  and  _467
REMARK  193  A    between atoms: _466  and  _469
REMARK  194  A    between atoms: _472  and  _474
REMARK  195  A    between atoms: _474  and  _475
REMARK  196  A    between atoms: _474  and  _477
REMARK  197  A    between atoms: _477  and  _478
REMARK  198  A    between atoms: _483  and  _485
REMARK  199  A    between atoms: _485  and  _486
REMARK  200  A    between atoms: _485  and  _488
REMARK  201  A    between atoms: _488  and  _489
REMARK  202  A    between atoms: _492  and  _494
REMARK  203  A    between atoms: _494  and  _495
REMARK  204  A    between atoms: _494  and  _497
REMARK  205  A    between atoms: _497  and  _498
REMARK  206  A    between atoms: _501  and  _503
REMARK  207  A    between atoms: _503  and  _504
REMARK  208  A    between atoms: _506  and  _508
REMARK  209  A    between atoms: _508  and  _509
REMARK  210  A    between atoms: _508  and  _511
REMARK  211  A    between atoms: _511  and  _512
REMARK  212  A    between atoms: _512  and  _513
REMARK  213  A    between atoms: _513  and  _514
REMARK  214  A    between atoms: _523  and  _525
REMARK  215  A    between atoms: _525  and  _526
REMARK  216  A    between atoms: _525  and  _528
REMARK  217  A    between atoms: _528  and  _529
REMARK                            x       y       z     vdW  Elec       q    Type
REMARK                         _______ _______ _______ _____ _____    ______ ____
ROOT
ATOM      1  NE  ARG A   1      21.150  36.824  23.196  0.00  0.00    -0.265 N 
ATOM      2  HE  ARG A   1      20.497  37.361  23.801  0.00  0.00    +0.259 HD
ATOM      3  CZ  ARG A   1      21.186  37.145  21.899  0.00  0.00    +0.342 C 
ATOM      4  NH2 ARG A   1      20.405  38.140  21.471  0.00  0.00    -0.292 N 
ATOM      5 HH21 ARG A   1      19.790  38.643  22.142  0.00  0.00    +0.255 HD
ATOM      6 HH22 ARG A   1      20.412  38.412  20.467  0.00  0.00    +0.255 HD
ATOM      7  NH1 ARG A   1      21.973  36.491  21.028  0.00  0.00    -0.292 N 
ATOM      8 HH11 ARG A   1      22.577  35.711  21.357  0.00  0.00    +0.255 HD
ATOM      9 HH12 ARG A   1      21.978  36.765  20.025  0.00  0.00    +0.255 HD
ENDROOT
BRANCH   1  10
ATOM     10  CD  ARG A   1      21.950  35.783  23.836  0.00  0.00    +0.174 C 
BRANCH  10  11
ATOM     11  CG  ARG A   1      21.317  35.270  25.114  0.00  0.00    +0.045 C 
BRANCH  11  12
ATOM     12  CB  ARG A   1      22.283  34.387  25.869  0.00  0.00    +0.029 C 
BRANCH  12  13
ATOM     13  CA  ARG A   1      21.631  33.403  26.847  0.00  0.00    +0.133 C 
BRANCH  13  14
ATOM     14  N   ARG A   1      20.921  34.089  27.926  0.00  0.00    -0.239 NA
ATOM     15  H   ARG A   1      20.881  35.128  27.935  0.00  0.00    +0.142 HD
ENDBRANCH  13  14
BRANCH  13  16
ATOM     16  C   ARG A   1      22.730  32.508  27.428  0.00  0.00    +0.224 C 
ATOM     17  O   ARG A   1      23.520  32.959  28.266  0.00  0.00    -0.287 OA
ENDBRANCH  13  16
ENDBRANCH  12  13
ENDBRANCH  11  12
ENDBRANCH  10  11
ENDBRANCH   1  10
TORSDOF 6
REMARK  Name = ../refined-set-2016/3o99/3o99_pocket.pdb
REMARK  217 active torsions:
REMARK  status: ('A' for Active; 'I' for Inactive)
REMARK    1  A    between atoms: _1  and  _3
REMARK    2  A    between atoms: _3  and  _4
REMARK    3  A    between atoms: _3  and  _6
REMARK    4  A    between atoms: _6  and  _7
REMARK    5  A    between atoms: _7  and  _8
REMARK    6  A    between atoms: _8  and  _9
REMARK    7  A    between atoms: _18  and  _20
REMARK    8  A    between atoms: _20  and  _21
REMARK    9  A    between atoms: _20  and  _23
REMARK   10  A    between atoms: _23  and  _24
REMARK   11  A    between atoms: _27  and  _29
REMARK   12  A    between atoms: _29  and  _30
REMARK   13  A    between atoms: _29  and  _32
REMARK   14  A    between atoms: _32  and  _33
REMARK   15  A    between atoms: _36  and  _38
REMARK   16  A    between atoms: _38  and  _39
REMARK   17  A    between atoms: _38  and  _41
REMARK   18  A    between atoms: _41  and  _42
REMARK   19  A    between atoms: _45  and  _47
REMARK   20  A    between atoms: _47  and  _48
REMARK   21  A    between atoms: _47  and  _50
REMARK   22  A    between atoms: _50  and  _51
REMARK   23  A    between atoms: _54  and  _56
REMARK   24  A    between atoms: _56  and  _57
REMARK   25  A    between atoms: _59  and  _61
REMARK   26  A    between atoms: _61  and  _62
REMARK   27  A    between atoms: _65  and  _67
REMARK   28  A    between atoms: _67  and  _68
REMARK   29  A    between atoms: _67  and  _70
REMARK   30  A    between atoms: _70  and  _71
REMARK   31  A    between atoms: _74  and  _76
REMARK   32  A    between atoms: _76  and  _77
REMARK   33  A    between atoms: _76  and  _79
REMARK   34  A    between atoms: _79  and  _80
REMARK   35  A    between atoms: _83  and  _85
REMARK   36  A    between atoms: _85  and  _86
REMARK   37  A    between atoms: _85  and  _88
REMARK   38  A    between atoms: _88  and  _89
REMARK   39  A    between atoms: _92  and  _94
REMARK   40  A    between atoms: _94  and  _95
REMARK   41  A    between atoms: _94  and  _97
REMARK   42  A    between atoms: _100  and  _102
REMARK   43  A    between atoms: _102  and  _103
REMARK   44  A    between atoms: _102  and  _105
REMARK   45  A    between atoms: _105  and  _106
REMARK   46  A    between atoms: _109  and  _111
REMARK   47  A    between atoms: _111  and  _112
REMARK   48  A    between atoms: _114  and  _116
REMARK   49  A    between atoms: _116  and  _117
REMARK   50  A    between atoms: _119  and  _121
REMARK   51  A    between atoms: _121  and  _122
REMARK   52  A    between atoms: _121  and  _124
REMARK   53  A    between atoms: _124  and  _125
REMARK   54  A    between atoms: _128  and  _130
REMARK   55  A    between atoms: _130  and  _131
REMARK   56  A    between atoms: _133  and  _135
REMARK   57  A    between atoms: _135  and  _136
REMARK   58  A    between atoms: _138  and  _140
REMARK   59  A    between atoms: _140  and  _141
REMARK   60  A    between atoms: _140  and  _143
REMARK   61  A    between atoms: _143  and  _144
REMARK   62  A    between atoms: _147  and  _149
REMARK   63  A    between atoms: _149  and  _150
REMARK   64  A    between atoms: _149  and  _152
REMARK   65  A    between atoms: _152  and  _153
REMARK   66  A    between atoms: _156  and  _158
REMARK   67  A    between atoms: _158  and  _159
REMARK   68  A    between atoms: _158  and  _161
REMARK   69  A    between atoms: _161  and  _162
REMARK   70  A    between atoms: _166  and  _167
REMARK   71  A    between atoms: _172  and  _174
REMARK   72  A    between atoms: _174  and  _175
REMARK   73  A    between atoms: _174  and  _177
REMARK   74  A    between atoms: _180  and  _182
REMARK   75  A    between atoms: _182  and  _183
REMARK   76  A    between atoms: _182  and  _185
REMARK   77  A    between atoms: _185  and  _186
REMARK   78  A    between atoms: _191  and  _193
REMARK   79  A    between atoms: _193  and  _194
REMARK   80  A    between atoms: _193  and  _196
REMARK   81  A    between atoms: _196  and  _197
REMARK   82  A    between atoms: _200  and  _202
REMARK   83  A    between atoms: _202  and  _203
REMARK   84  A    between atoms: _202  and  _205
REMARK   85  A    between atoms: _205  and  _206
REMARK   86  A    between atoms: _209  and  _211
REMARK   87  A    between atoms: _211  and  _212
REMARK   88  A    between atoms: _214  and  _216
REMARK   89  A    between atoms: _216  and  _217
REMARK   90  A    between atoms: _216  and  _219
REMARK   91  A    between atoms: _219  and  _220
REMARK   92  A    between atoms: _220  and  _221
REMARK   93  A    between atoms: _221  and  _222
REMARK   94  A    between atoms: _231  and  _233
REMARK   95  A    between atoms: _233  and  _234
REMARK   96  A    between atoms: _233  and  _236
REMARK   97  A    between atoms: _236  and  _237
REMARK   98  A    between atoms: _242  and  _244
REMARK   99  A    between atoms: _244  and  _245
REMARK  100  A    between atoms: _244  and  _247
REMARK  101  A    between atoms: _247  and  _248
REMARK  102  A    between atoms: _248  and  _249
REMARK  103  A    between atoms: _249  and  _250
REMARK  104  A    between atoms: _259  and  _261
REMARK  105  A    between atoms: _261  and  _262
REMARK  106  A    between atoms: _261  and  _264
REMARK  107  A    between atoms: _264  and  _265
REMARK  108  A    between atoms: _268  and  _270
REMARK  109  A    between atoms: _270  and  _271
REMARK  110  A    between atoms: _270  and  _273
REMARK  111  A    between atoms: _273  and  _274
REMARK  112  A    between atoms: _277  and  _279
REMARK  113  A    between atoms: _279  and  _280
REMARK  114  A    between atoms: _279  and  _282
REMARK  115  A    between atoms: _282  and  _283
REMARK  116  A    between atoms: _286  and  _288
REMARK  117  A    between atoms: _288  and  _289
REMARK  118  A    between atoms: _288  and  _291
REMARK  119  A    between atoms: _291  and  _292
REMARK  120  A    between atoms: _295  and  _297
REMARK  121  A    between atoms: _297  and  _298
REMARK  122  A    between atoms: _300  and  _302
REMARK  123  A    between atoms: _302  and  _303
REMARK  124  A    between atoms: _306  and  _308
REMARK  125  A    between atoms: _308  and  _309
REMARK  126  A    between atoms: _308  and  _311
REMARK  127  A    between atoms: _311  and  _312
REMARK  128  A    between atoms: _315  and  _317
REMARK  129  A    between atoms: _317  and  _318
REMARK  130  A    between atoms: _317  and  _320
REMARK  131  A    between atoms: _320  and  _321
REMARK  132  A    between atoms: _324  and  _326
REMARK  133  A    between atoms: _326  and  _327
REMARK  134  A    between atoms: _326  and  _329
REMARK  135  A    between atoms: _329  and  _330
REMARK  136  A    between atoms: _333  and  _335
REMARK  137  A    between atoms: _335  and  _336
REMARK  138  A    between atoms: _335  and  _338
REMARK  139  A    between atoms: _341  and  _343
REMARK  140  A    between atoms: _343  and  _344
REMARK  141  A    between atoms: _343  and  _346
REMARK  142  A    between atoms: _346  and  _347
REMARK  143  A    between atoms: _350  and  _352
REMARK  144  A    between atoms: _352  and  _353
REMARK  145  A    between atoms: _352  and  _355
REMARK  146  A    between atoms: _355  and  _356
REMARK  147  A    between atoms: _356  and  _357
REMARK  148  A    between atoms: _357  and  _358
REMARK  149  A    between atoms: _358  and  _359
REMARK  150  A    between atoms: _363  and  _365
REMARK  151  A    between atoms: _365  and  _366
REMARK  152  A    between atoms: _365  and  _368
REMARK  153  A    between atoms: _368  and  _369
REMARK  154  A    between atoms: _369  and  _370
REMARK  155  A    between atoms: _372  and  _374
REMARK  156  A    between atoms: _374  and  _375
REMARK  157  A    between atoms: _374  and  _377
REMARK  158  A    between atoms: _377  and  _378
REMARK  159  A    between atoms: _381  and  _383
REMARK  160  A    between atoms: _383  and  _384
REMARK  161  A    between atoms: _386  and  _388
REMARK  162  A    between atoms: _388  and  _389
REMARK  163  A    between atoms: _391  and  _393
REMARK  164  A    between atoms: _393  and  _394
REMARK  165  A    between atoms: _393  and  _396
REMARK  166  A    between atoms: _396  and  _397
REMARK  167  A    between atoms: _400  and  _402
REMARK  168  A    between atoms: _402  and  _403
REMARK  169  A    between atoms: _405  and  _407
REMARK  170  A    between atoms: _407  and  _408
REMARK  171  A    between atoms: _410  and  _412
REMARK  172  A    between atoms: _412  and  _413
REMARK  173  A    between atoms: _412  and  _415
REMARK  174  A    between atoms: _415  and  _416
REMARK  175  A    between atoms: _422  and  _424
REMARK  176  A    between atoms: _424  and  _425
REMARK  177  A    between atoms: _424  and  _427
REMARK  178  A    between atoms: _427  and  _428
REMARK  179  A    between atoms: _431  and  _433
REMARK  180  A    between atoms: _433  and  _434
REMARK  181  A    between atoms: _433  and  _436
REMARK  182  A    between atoms: _439  and  _441
REMARK  183  A    between atoms: _441  and  _442
REMARK  184  A    between atoms: _441  and  _444
REMARK  185  A    between atoms: _444  and  _445
REMARK  186  A    between atoms: _448  and  _450
REMARK  187  A    between atoms: _450  and  _451
REMARK  188  A    between atoms: _450  and  _453
REMARK  189  A    between atoms: _453  and  _454
REMARK  190  A    between atoms: _458  and  _459
REMARK  191  A    between atoms: _464  and  _466
REMARK  192  A    between atoms: _466  and  _467
REMARK  193  A    between atoms: _466  and  _469
REMARK  194  A    between atoms: _472  and  _474
REMARK  195  A    between atoms: _474  and  _475
REMARK  196  A    between atoms: _474  and  _477
REMARK  197  A    between atoms: _477  and  _478
REMARK  198  A    between atoms: _483  and  _485
REMARK  199  A    between atoms: _485  and  _486
REMARK  200  A    between atoms: _485  and  _488
REMARK  201  A    between atoms: _488  and  _489
REMARK  202  A    between atoms: _492  and  _494
REMARK  203  A    between atoms: _494  and  _495
REMARK  204  A    between atoms: _494  and  _497
REMARK  205  A    between atoms: _497  and  _498
REMARK  206  A    between atoms: _501  and  _503
REMARK  207  A    between atoms: _503  and  _504
REMARK  208  A    between atoms: _506  and  _508
REMARK  209  A    between atoms: _508  and  _509
REMARK  210  A    between atoms: _508  and  _511
REMARK  211  A    between atoms: _511  and  _512
REMARK  212  A    between atoms: _512  and  _513
REMARK  213  A    between atoms: _513  and  _514
REMARK  214  A    between atoms: _523  and  _525
REMARK  215  A    between atoms: _525  and  _526
REMARK  216  A    between atoms: _525  and  _528
REMARK  217  A    between atoms: _528  and  _529
REMARK                            x       y       z     vdW  Elec       q    Type
REMARK                         _______ _______ _______ _____ _____    ______ ____
ROOT
ATOM      1  C   GLY A   5      20.575  25.016  15.739  0.00  0.00    +0.243 C 
ATOM      2  N   ALA A   6      21.873  25.000  16.026  0.00  0.00    -0.297 N 
ATOM      3  H   ALA A   6      22.163  24.935  17.023  0.00  0.00    +0.150 HD
ATOM      4  O   GLY A   5      20.139  25.134  14.590  0.00  0.00    -0.273 OA
ENDROOT
BRANCH   2   5
ATOM      5  CA  ALA A   6      22.895  25.069  15.013  0.00  0.00    +0.149 C 
ATOM      6  CB  ALA A   6      23.940  26.119  15.424  0.00  0.00    +0.031 C 
BRANCH   5   7
ATOM      7  C   ALA A   6      23.532  23.681  14.799  0.00  0.00    +0.241 C 
ATOM      8  O   ALA A   6      23.993  23.067  15.759  0.00  0.00    -0.273 OA
ATOM      9  N   ASP A   7      23.532  23.190  13.558  0.00  0.00    -0.297 N 
ATOM     10  H   ASP A   7      23.034  23.716  12.812  0.00  0.00    +0.150 HD
BRANCH   9  11
ATOM     11  CA  ASP A   7      24.208  21.937  13.206  0.00  0.00    +0.160 C 
BRANCH  11  12
ATOM     12  C   ASP A   7      25.702  22.143  13.340  0.00  0.00    +0.241 C 
ATOM     13  O   ASP A   7      26.432  21.252  13.787  0.00  0.00    -0.273 OA
ATOM     14  N   ASP A   8      26.138  23.337  12.956  0.00  0.00    -0.297 N 
ATOM     15  H   ASP A   8      25.439  24.073  12.729  0.00  0.00    +0.150 HD
BRANCH  14  16
ATOM     16  CA  ASP A   8      27.553  23.659  12.840  0.00  0.00    +0.160 C 
BRANCH  16  17
ATOM     17  C   ASP A   8      27.967  24.759  13.783  0.00  0.00    +0.241 C 
ATOM     18  O   ASP A   8      27.144  25.559  14.239  0.00  0.00    -0.273 OA
ATOM     19  N   THR A   9      29.274  24.798  14.022  0.00  0.00    -0.295 N 
ATOM     20  H   THR A   9      29.870  24.050  13.614  0.00  0.00    +0.150 HD
BRANCH  19  21
ATOM     21  CA  THR A   9      29.917  25.829  14.823  0.00  0.00    +0.176 C 
BRANCH  21  22
ATOM     22  C   THR A   9      30.438  26.928  13.901  0.00  0.00    +0.243 C 
ATOM     23  N   VAL A  10      29.984  28.152  14.147  0.00  0.00    -0.298 N 
ATOM     24  H   VAL A  10      29.386  28.301  14.985  0.00  0.00    +0.150 HD
ATOM     25  O   THR A   9      31.219  26.665  12.982  0.00  0.00    -0.273 OA
BRANCH  23  26
ATOM     26  CA  VAL A  10      30.287  29.300  13.292  0.00  0.00    +0.137 C 
BRANCH  26  27
ATOM     27  CB  VAL A  10      29.055  29.796  12.515  0.00  0.00    +0.026 C 
ATOM     28  CG2 VAL A  10      28.277  28.636  11.928  0.00  0.00    +0.002 C 
ATOM     29  CG1 VAL A  10      29.515  30.742  11.421  0.00  0.00    +0.002 C 
ENDBRANCH  26  27
BRANCH  26  30
ATOM     30  C   VAL A  10      30.820  30.448  14.150  0.00  0.00    +0.227 C 
ATOM     31  O   VAL A  10      30.138  30.928  15.051  0.00  0.00    -0.286 OA
ENDBRANCH  26  30
ENDBRANCH  23  26
ENDBRANCH  21  22
BRANCH  21  32
ATOM     32  CB  THR A   9      31.076  25.224  15.607  0.00  0.00    +0.137 C 
ATOM     33  CG2 THR A   9      31.938  26.318  16.282  0.00  0.00    +0.034 C 
BRANCH  32  34
ATOM     34  OG1 THR A   9      30.530  24.327  16.581  0.00  0.00    -0.382 OA
ATOM     35  HG1 THR A   9      30.018  23.615  16.122  0.00  0.00    +0.210 HD
ENDBRANCH  32  34
ENDBRANCH  21  32
ENDBRANCH  19  21
ENDBRANCH  16  17
BRANCH  16  36
ATOM     36  CB  ASP A   8      27.869  24.131  11.421  0.00  0.00    +0.143 C 
BRANCH  36  37
ATOM     37  CG  ASP A   8      27.458  23.133  10.376  0.00  0.00    +0.367 C 
ATOM     38  OD2 ASP A   8      27.781  21.935  10.534  0.00  0.00    -0.246 OA
ATOM     39  OD1 ASP A   8      26.816  23.558   9.397  0.00  0.00    -0.246 OA
ENDBRANCH  36  37
ENDBRANCH  16  36
ENDBRANCH  14  16
ENDBRANCH  11  12
BRANCH  11  40
ATOM     40  CB  ASP A   7      23.949  21.500  11.762  0.00  0.00    +0.143 C 
BRANCH  40  41
ATOM     41  CG  ASP A   7      22.484  21.314  11.426  0.00  0.00    +0.367 C 
ATOM     42  OD2 ASP A   7      21.611  21.173  12.309  0.00  0.00    -0.246 OA
ATOM     43  OD1 ASP A   7      22.212  21.281  10.218  0.00  0.00    -0.246 OA
ENDBRANCH  40  41
ENDBRANCH  11  40
ENDBRANCH   9  11
ENDBRANCH   5   7
ENDBRANCH   2   5
BRANCH   1  44
ATOM     44  CA  GLY A   5      19.619  24.898  16.908  0.00  0.00    +0.176 C 
BRANCH  44  46
ATOM     45  C   THR A   4      20.670  23.551  18.664  0.00  0.00    +0.243 C 
ATOM     46  N   GLY A   5      20.222  24.721  18.225  0.00  0.00    -0.295 N 
ATOM     47  H   GLY A   5      20.305  25.549  18.848  0.00  0.00    +0.150 HD
ATOM     48  O   THR A   4      20.543  22.509  18.020  0.00  0.00    -0.273 OA
BRANCH  45  49
ATOM     49  CA  THR A   4      21.390  23.546  20.017  0.00  0.00    +0.176 C 
BRANCH  49  51
ATOM     50  C   ASP A   3      22.839  25.477  19.714  0.00  0.00    +0.241 C 
ATOM     51  N   THR A   4      21.857  24.882  20.383  0.00  0.00    -0.295 N 
ATOM     52  H   THR A   4      21.412  25.376  21.182  0.00  0.00    +0.150 HD
ATOM     53  O   ASP A   3      23.343  24.979  18.706  0.00  0.00    -0.273 OA
BRANCH  50  54
ATOM     54  CA  ASP A   3      23.296  26.852  20.237  0.00  0.00    +0.160 C 
BRANCH  54  57
ATOM     55  C   LEU A   2      24.364  27.232  22.418  0.00  0.00    +0.241 C 
ATOM     56  O   LEU A   2      23.339  27.676  22.952  0.00  0.00    -0.273 OA
ATOM     57  N   ASP A   3      24.397  26.729  21.182  0.00  0.00    -0.297 N 
ATOM     58  H   ASP A   3      25.253  26.223  20.878  0.00  0.00    +0.150 HD
BRANCH  55  59
ATOM     59  CA  LEU A   2      25.712  27.276  23.143  0.00  0.00    +0.149 C 
BRANCH  59  61
ATOM     60  C   LEU A   1      26.447  29.419  22.264  0.00  0.00    +0.238 C 
ATOM     61  N   LEU A   2      26.066  28.687  23.314  0.00  0.00    -0.297 N 
ATOM     62  H   LEU A   2      26.020  29.121  24.258  0.00  0.00    +0.150 HD
ATOM     63  O   LEU A   1      26.668  28.928  21.154  0.00  0.00    -0.274 OA
BRANCH  60  64
ATOM     64  CA  LEU A   1      26.674  30.901  22.497  0.00  0.00    +0.145 C 
BRANCH  64  65
ATOM     65  N   LEU A   1      28.027  31.264  22.126  0.00  0.00    -0.238 NA
ATOM     66  H   LEU A   1      28.236  31.396  21.116  0.00  0.00    +0.142 HD
ENDBRANCH  64  65
BRANCH  64  67
ATOM     67  CB  LEU A   1      25.693  31.706  21.638  0.00  0.00    +0.026 C 
BRANCH  67  68
ATOM     68  CG  LEU A   1      24.200  31.493  21.844  0.00  0.00    +0.002 C 
ATOM     69  CD2 LEU A   1      23.779  31.984  23.210  0.00  0.00    +0.000 C 
ATOM     70  CD1 LEU A   1      23.433  32.228  20.736  0.00  0.00    +0.000 C 
ENDBRANCH  67  68
ENDBRANCH  64  67
ENDBRANCH  60  64
ENDBRANCH  59  61
BRANCH  59  71
ATOM     71  CB  LEU A   2      25.682  26.529  24.478  0.00  0.00    +0.029 C 
BRANCH  71  72
ATOM     72  CG  LEU A   2      26.974  26.605  25.290  0.00  0.00    +0.002 C 
ATOM     73  CD2 LEU A   2      26.799  25.921  26.669  0.00  0.00    +0.000 C 
ATOM     74  CD1 LEU A   2      28.115  25.986  24.466  0.00  0.00    +0.000 C 
ENDBRANCH  71  72
ENDBRANCH  59  71
ENDBRANCH  55  59
ENDBRANCH  54  57
BRANCH  54  75
ATOM     75  CB  ASP A   3      23.761  27.753  19.089  0.00  0.00    +0.143 C 
BRANCH  75  76
ATOM     76  CG  ASP A   3      22.635  28.181  18.183  0.00  0.00    +0.367 C 
ATOM     77  OD2 ASP A   3      21.514  27.613  18.275  0.00  0.00    -0.246 OA
ATOM     78  OD1 ASP A   3      22.895  29.073  17.343  0.00  0.00    -0.246 OA
ENDBRANCH  75  76
ENDBRANCH  54  75
ENDBRANCH  50  54
ENDBRANCH  49  51
BRANCH  49  79
ATOM     79  CB  THR A   4      20.481  22.951  21.103  0.00  0.00    +0.137 C 
ATOM     80  CG2 THR A   4      21.254  22.781  22.446  0.00  0.00    +0.034 C 
BRANCH  79  81
ATOM     81  OG1 THR A   4      19.352  23.806  21.316  0.00  0.00    -0.382 OA
ATOM     82  HG1 THR A   4      18.841  23.892  20.473  0.00  0.00    +0.210 HD
ENDBRANCH  79  81
ENDBRANCH  49  79
ENDBRANCH  45  49
ENDBRANCH  44  46
ENDBRANCH   1  44
TORSDOF 35
REMARK  Name = ../refined-set-2016/3o99/3o99_pocket.pdb
REMARK  217 active torsions:
REMARK  status: ('A' for Active; 'I' for Inactive)
REMARK    1  A    between atoms: _1  and  _3
REMARK    2  A    between atoms: _3  and  _4
REMARK    3  A    between atoms: _3  and  _6
REMARK    4  A    between atoms: _6  and  _7
REMARK    5  A    between atoms: _7  and  _8
REMARK    6  A    between atoms: _8  and  _9
REMARK    7  A    between atoms: _18  and  _20
REMARK    8  A    between atoms: _20  and  _21
REMARK    9  A    between atoms: _20  and  _23
REMARK   10  A    between atoms: _23  and  _24
REMARK   11  A    between atoms: _27  and  _29
REMARK   12  A    between atoms: _29  and  _30
REMARK   13  A    between atoms: _29  and  _32
REMARK   14  A    between atoms: _32  and  _33
REMARK   15  A    between atoms: _36  and  _38
REMARK   16  A    between atoms: _38  and  _39
REMARK   17  A    between atoms: _38  and  _41
REMARK   18  A    between atoms: _41  and  _42
REMARK   19  A    between atoms: _45  and  _47
REMARK   20  A    between atoms: _47  and  _48
REMARK   21  A    between atoms: _47  and  _50
REMARK   22  A    between atoms: _50  and  _51
REMARK   23  A    between atoms: _54  and  _56
REMARK   24  A    between atoms: _56  and  _57
REMARK   25  A    between atoms: _59  and  _61
REMARK   26  A    between atoms: _61  and  _62
REMARK   27  A    between atoms: _65  and  _67
REMARK   28  A    between atoms: _67  and  _68
REMARK   29  A    between atoms: _67  and  _70
REMARK   30  A    between atoms: _70  and  _71
REMARK   31  A    between atoms: _74  and  _76
REMARK   32  A    between atoms: _76  and  _77
REMARK   33  A    between atoms: _76  and  _79
REMARK   34  A    between atoms: _79  and  _80
REMARK   35  A    between atoms: _83  and  _85
REMARK   36  A    between atoms: _85  and  _86
REMARK   37  A    between atoms: _85  and  _88
REMARK   38  A    between atoms: _88  and  _89
REMARK   39  A    between atoms: _92  and  _94
REMARK   40  A    between atoms: _94  and  _95
REMARK   41  A    between atoms: _94  and  _97
REMARK   42  A    between atoms: _100  and  _102
REMARK   43  A    between atoms: _102  and  _103
REMARK   44  A    between atoms: _102  and  _105
REMARK   45  A    between atoms: _105  and  _106
REMARK   46  A    between atoms: _109  and  _111
REMARK   47  A    between atoms: _111  and  _112
REMARK   48  A    between atoms: _114  and  _116
REMARK   49  A    between atoms: _116  and  _117
REMARK   50  A    between atoms: _119  and  _121
REMARK   51  A    between atoms: _121  and  _122
REMARK   52  A    between atoms: _121  and  _124
REMARK   53  A    between atoms: _124  and  _125
REMARK   54  A    between atoms: _128  and  _130
REMARK   55  A    between atoms: _130  and  _131
REMARK   56  A    between atoms: _133  and  _135
REMARK   57  A    between atoms: _135  and  _136
REMARK   58  A    between atoms: _138  and  _140
REMARK   59  A    between atoms: _140  and  _141
REMARK   60  A    between atoms: _140  and  _143
REMARK   61  A    between atoms: _143  and  _144
REMARK   62  A    between atoms: _147  and  _149
REMARK   63  A    between atoms: _149  and  _150
REMARK   64  A    between atoms: _149  and  _152
REMARK   65  A    between atoms: _152  and  _153
REMARK   66  A    between atoms: _156  and  _158
REMARK   67  A    between atoms: _158  and  _159
REMARK   68  A    between atoms: _158  and  _161
REMARK   69  A    between atoms: _161  and  _162
REMARK   70  A    between atoms: _166  and  _167
REMARK   71  A    between atoms: _172  and  _174
REMARK   72  A    between atoms: _174  and  _175
REMARK   73  A    between atoms: _174  and  _177
REMARK   74  A    between atoms: _180  and  _182
REMARK   75  A    between atoms: _182  and  _183
REMARK   76  A    between atoms: _182  and  _185
REMARK   77  A    between atoms: _185  and  _186
REMARK   78  A    between atoms: _191  and  _193
REMARK   79  A    between atoms: _193  and  _194
REMARK   80  A    between atoms: _193  and  _196
REMARK   81  A    between atoms: _196  and  _197
REMARK   82  A    between atoms: _200  and  _202
REMARK   83  A    between atoms: _202  and  _203
REMARK   84  A    between atoms: _202  and  _205
REMARK   85  A    between atoms: _205  and  _206
REMARK   86  A    between atoms: _209  and  _211
REMARK   87  A    between atoms: _211  and  _212
REMARK   88  A    between atoms: _214  and  _216
REMARK   89  A    between atoms: _216  and  _217
REMARK   90  A    between atoms: _216  and  _219
REMARK   91  A    between atoms: _219  and  _220
REMARK   92  A    between atoms: _220  and  _221
REMARK   93  A    between atoms: _221  and  _222
REMARK   94  A    between atoms: _231  and  _233
REMARK   95  A    between atoms: _233  and  _234
REMARK   96  A    between atoms: _233  and  _236
REMARK   97  A    between atoms: _236  and  _237
REMARK   98  A    between atoms: _242  and  _244
REMARK   99  A    between atoms: _244  and  _245
REMARK  100  A    between atoms: _244  and  _247
REMARK  101  A    between atoms: _247  and  _248
REMARK  102  A    between atoms: _248  and  _249
REMARK  103  A    between atoms: _249  and  _250
REMARK  104  A    between atoms: _259  and  _261
REMARK  105  A    between atoms: _261  and  _262
REMARK  106  A    between atoms: _261  and  _264
REMARK  107  A    between atoms: _264  and  _265
REMARK  108  A    between atoms: _268  and  _270
REMARK  109  A    between atoms: _270  and  _271
REMARK  110  A    between atoms: _270  and  _273
REMARK  111  A    between atoms: _273  and  _274
REMARK  112  A    between atoms: _277  and  _279
REMARK  113  A    between atoms: _279  and  _280
REMARK  114  A    between atoms: _279  and  _282
REMARK  115  A    between atoms: _282  and  _283
REMARK  116  A    between atoms: _286  and  _288
REMARK  117  A    between atoms: _288  and  _289
REMARK  118  A    between atoms: _288  and  _291
REMARK  119  A    between atoms: _291  and  _292
REMARK  120  A    between atoms: _295  and  _297
REMARK  121  A    between atoms: _297  and  _298
REMARK  122  A    between atoms: _300  and  _302
REMARK  123  A    between atoms: _302  and  _303
REMARK  124  A    between atoms: _306  and  _308
REMARK  125  A    between atoms: _308  and  _309
REMARK  126  A    between atoms: _308  and  _311
REMARK  127  A    between atoms: _311  and  _312
REMARK  128  A    between atoms: _315  and  _317
REMARK  129  A    between atoms: _317  and  _318
REMARK  130  A    between atoms: _317  and  _320
REMARK  131  A    between atoms: _320  and  _321
REMARK  132  A    between atoms: _324  and  _326
REMARK  133  A    between atoms: _326  and  _327
REMARK  134  A    between atoms: _326  and  _329
REMARK  135  A    between atoms: _329  and  _330
REMARK  136  A    between atoms: _333  and  _335
REMARK  137  A    between atoms: _335  and  _336
REMARK  138  A    between atoms: _335  and  _338
REMARK  139  A    between atoms: _341  and  _343
REMARK  140  A    between atoms: _343  and  _344
REMARK  141  A    between atoms: _343  and  _346
REMARK  142  A    between atoms: _346  and  _347
REMARK  143  A    between atoms: _350  and  _352
REMARK  144  A    between atoms: _352  and  _353
REMARK  145  A    between atoms: _352  and  _355
REMARK  146  A    between atoms: _355  and  _356
REMARK  147  A    between atoms: _356  and  _357
REMARK  148  A    between atoms: _357  and  _358
REMARK  149  A    between atoms: _358  and  _359
REMARK  150  A    between atoms: _363  and  _365
REMARK  151  A    between atoms: _365  and  _366
REMARK  152  A    between atoms: _365  and  _368
REMARK  153  A    between atoms: _368  and  _369
REMARK  154  A    between atoms: _369  and  _370
REMARK  155  A    between atoms: _372  and  _374
REMARK  156  A    between atoms: _374  and  _375
REMARK  157  A    between atoms: _374  and  _377
REMARK  158  A    between atoms: _377  and  _378
REMARK  159  A    between atoms: _381  and  _383
REMARK  160  A    between atoms: _383  and  _384
REMARK  161  A    between atoms: _386  and  _388
REMARK  162  A    between atoms: _388  and  _389
REMARK  163  A    between atoms: _391  and  _393
REMARK  164  A    between atoms: _393  and  _394
REMARK  165  A    between atoms: _393  and  _396
REMARK  166  A    between atoms: _396  and  _397
REMARK  167  A    between atoms: _400  and  _402
REMARK  168  A    between atoms: _402  and  _403
REMARK  169  A    between atoms: _405  and  _407
REMARK  170  A    between atoms: _407  and  _408
REMARK  171  A    between atoms: _410  and  _412
REMARK  172  A    between atoms: _412  and  _413
REMARK  173  A    between atoms: _412  and  _415
REMARK  174  A    between atoms: _415  and  _416
REMARK  175  A    between atoms: _422  and  _424
REMARK  176  A    between atoms: _424  and  _425
REMARK  177  A    between atoms: _424  and  _427
REMARK  178  A    between atoms: _427  and  _428
REMARK  179  A    between atoms: _431  and  _433
REMARK  180  A    between atoms: _433  and  _434
REMARK  181  A    between atoms: _433  and  _436
REMARK  182  A    between atoms: _439  and  _441
REMARK  183  A    between atoms: _441  and  _442
REMARK  184  A    between atoms: _441  and  _444
REMARK  185  A    between atoms: _444  and  _445
REMARK  186  A    between atoms: _448  and  _450
REMARK  187  A    between atoms: _450  and  _451
REMARK  188  A    between atoms: _450  and  _453
REMARK  189  A    between atoms: _453  and  _454
REMARK  190  A    between atoms: _458  and  _459
REMARK  191  A    between atoms: _464  and  _466
REMARK  192  A    between atoms: _466  and  _467
REMARK  193  A    between atoms: _466  and  _469
REMARK  194  A    between atoms: _472  and  _474
REMARK  195  A    between atoms: _474  and  _475
REMARK  196  A    between atoms: _474  and  _477
REMARK  197  A    between atoms: _477  and  _478
REMARK  198  A    between atoms: _483  and  _485
REMARK  199  A    between atoms: _485  and  _486
REMARK  200  A    between atoms: _485  and  _488
REMARK  201  A    between atoms: _488  and  _489
REMARK  202  A    between atoms: _492  and  _494
REMARK  203  A    between atoms: _494  and  _495
REMARK  204  A    between atoms: _494  and  _497
REMARK  205  A    between atoms: _497  and  _498
REMARK  206  A    between atoms: _501  and  _503
REMARK  207  A    between atoms: _503  and  _504
REMARK  208  A    between atoms: _506  and  _508
REMARK  209  A    between atoms: _508  and  _509
REMARK  210  A    between atoms: _508  and  _511
REMARK  211  A    between atoms: _511  and  _512
REMARK  212  A    between atoms: _512  and  _513
REMARK  213  A    between atoms: _513  and  _514
REMARK  214  A    between atoms: _523  and  _525
REMARK  215  A    between atoms: _525  and  _526
REMARK  216  A    between atoms: _525  and  _528
REMARK  217  A    between atoms: _528  and  _529
REMARK                            x       y       z     vdW  Elec       q    Type
REMARK                         _______ _______ _______ _____ _____    ______ ____
ROOT
ATOM      1  C   GLY A   3      19.094  31.001   8.322  0.00  0.00    +0.243 C 
ATOM      2  N   ILE A   4      18.556  31.669   9.334  0.00  0.00    -0.297 N 
ATOM      3  H   ILE A   4      19.127  31.849  10.185  0.00  0.00    +0.150 HD
ATOM      4  O   GLY A   3      18.531  30.869   7.218  0.00  0.00    -0.273 OA
ENDROOT
BRANCH   2   5
ATOM      5  CA  ILE A   4      17.194  32.152   9.281  0.00  0.00    +0.149 C 
BRANCH   5   6
ATOM      6  C   ILE A   4      17.021  33.237   8.210  0.00  0.00    +0.241 C 
ATOM      7  N   GLY A   5      18.074  34.015   7.968  0.00  0.00    -0.295 N 
ATOM      8  H   GLY A   5      18.973  33.817   8.451  0.00  0.00    +0.150 HD
ATOM      9  O   ILE A   4      15.947  33.350   7.600  0.00  0.00    -0.273 OA
BRANCH   7  10
ATOM     10  CA  GLY A   5      17.996  35.146   7.035  0.00  0.00    +0.176 C 
BRANCH  10  11
ATOM     11  C   GLY A   5      18.549  34.909   5.643  0.00  0.00    +0.243 C 
ATOM     12  N   GLY A   6      19.044  33.706   5.365  0.00  0.00    -0.296 N 
ATOM     13  H   GLY A   6      19.044  32.973   6.103  0.00  0.00    +0.150 HD
ATOM     14  O   GLY A   5      18.551  35.818   4.824  0.00  0.00    -0.273 OA
BRANCH  12  15
ATOM     15  CA  GLY A   6      19.582  33.394   4.060  0.00  0.00    +0.163 C 
BRANCH  15  16
ATOM     16  C   GLY A   6      20.948  32.770   4.170  0.00  0.00    +0.229 C 
ATOM     17  O   GLY A   6      21.303  32.217   5.216  0.00  0.00    -0.286 OA
ENDBRANCH  15  16
ENDBRANCH  12  15
ENDBRANCH  10  11
ENDBRANCH   7  10
ENDBRANCH   5   6
BRANCH   5  18
ATOM     18  CB  ILE A   4      16.717  32.656  10.663  0.00  0.00    +0.027 C 
ATOM     19  CG2 ILE A   4      17.170  34.088  10.894  0.00  0.00    +0.002 C 
BRANCH  18  20
ATOM     20  CG1 ILE A   4      15.194  32.487  10.789  0.00  0.00    +0.002 C 
ATOM     21  CD1 ILE A   4      14.627  32.803  12.179  0.00  0.00    +0.000 C 
ENDBRANCH  18  20
ENDBRANCH   5  18
ENDBRANCH   2   5
BRANCH   1  22
ATOM     22  CA  GLY A   3      20.496  30.468   8.558  0.00  0.00    +0.176 C 
BRANCH  22  25
ATOM     23  C   GLY A   2      21.666  29.075   6.912  0.00  0.00    +0.243 C 
ATOM     24  O   GLY A   2      21.793  28.121   7.682  0.00  0.00    -0.273 OA
ATOM     25  N   GLY A   3      21.121  30.228   7.256  0.00  0.00    -0.295 N 
ATOM     26  H   GLY A   3      21.137  31.006   6.566  0.00  0.00    +0.150 HD
BRANCH  23  27
ATOM     27  CA  GLY A   2      22.131  28.983   5.468  0.00  0.00    +0.176 C 
BRANCH  27  29
ATOM     28  C   ILE A   1      24.531  28.816   5.049  0.00  0.00    +0.238 C 
ATOM     29  N   GLY A   2      23.377  28.241   5.368  0.00  0.00    -0.296 N 
ATOM     30  H   GLY A   2      23.364  27.218   5.554  0.00  0.00    +0.150 HD
ATOM     31  O   ILE A   1      24.661  30.027   4.832  0.00  0.00    -0.274 OA
BRANCH  28  32
ATOM     32  CA  ILE A   1      25.728  27.868   4.980  0.00  0.00    +0.145 C 
BRANCH  32  33
ATOM     33  N   ILE A   1      26.751  28.371   4.058  0.00  0.00    -0.238 NA
ATOM     34  H   ILE A   1      27.035  29.370   4.117  0.00  0.00    +0.142 HD
ENDBRANCH  32  33
BRANCH  32  35
ATOM     35  CB  ILE A   1      26.274  27.634   6.400  0.00  0.00    +0.025 C 
ATOM     36  CG2 ILE A   1      27.405  26.627   6.360  0.00  0.00    +0.002 C 
BRANCH  35  37
ATOM     37  CG1 ILE A   1      26.745  28.951   7.053  0.00  0.00    +0.002 C 
ATOM     38  CD1 ILE A   1      27.047  28.817   8.530  0.00  0.00    +0.000 C 
ENDBRANCH  35  37
ENDBRANCH  32  35
ENDBRANCH  28  32
ENDBRANCH  27  29
ENDBRANCH  23  27
ENDBRANCH  22  25
ENDBRANCH   1  22
TORSDOF 16
REMARK  Name = ../refined-set-2016/3o99/3o99_pocket.pdb
REMARK  217 active torsions:
REMARK  status: ('A' for Active; 'I' for Inactive)
REMARK    1  A    between atoms: _1  and  _3
REMARK    2  A    between atoms: _3  and  _4
REMARK    3  A    between atoms: _3  and  _6
REMARK    4  A    between atoms: _6  and  _7
REMARK    5  A    between atoms: _7  and  _8
REMARK    6  A    between atoms: _8  and  _9
REMARK    7  A    between atoms: _18  and  _20
REMARK    8  A    between atoms: _20  and  _21
REMARK    9  A    between atoms: _20  and  _23
REMARK   10  A    between atoms: _23  and  _24
REMARK   11  A    between atoms: _27  and  _29
REMARK   12  A    between atoms: _29  and  _30
REMARK   13  A    between atoms: _29  and  _32
REMARK   14  A    between atoms: _32  and  _33
REMARK   15  A    between atoms: _36  and  _38
REMARK   16  A    between atoms: _38  and  _39
REMARK   17  A    between atoms: _38  and  _41
REMARK   18  A    between atoms: _41  and  _42
REMARK   19  A    between atoms: _45  and  _47
REMARK   20  A    between atoms: _47  and  _48
REMARK   21  A    between atoms: _47  and  _50
REMARK   22  A    between atoms: _50  and  _51
REMARK   23  A    between atoms: _54  and  _56
REMARK   24  A    between atoms: _56  and  _57
REMARK   25  A    between atoms: _59  and  _61
REMARK   26  A    between atoms: _61  and  _62
REMARK   27  A    between atoms: _65  and  _67
REMARK   28  A    between atoms: _67  and  _68
REMARK   29  A    between atoms: _67  and  _70
REMARK   30  A    between atoms: _70  and  _71
REMARK   31  A    between atoms: _74  and  _76
REMARK   32  A    between atoms: _76  and  _77
REMARK   33  A    between atoms: _76  and  _79
REMARK   34  A    between atoms: _79  and  _80
REMARK   35  A    between atoms: _83  and  _85
REMARK   36  A    between atoms: _85  and  _86
REMARK   37  A    between atoms: _85  and  _88
REMARK   38  A    between atoms: _88  and  _89
REMARK   39  A    between atoms: _92  and  _94
REMARK   40  A    between atoms: _94  and  _95
REMARK   41  A    between atoms: _94  and  _97
REMARK   42  A    between atoms: _100  and  _102
REMARK   43  A    between atoms: _102  and  _103
REMARK   44  A    between atoms: _102  and  _105
REMARK   45  A    between atoms: _105  and  _106
REMARK   46  A    between atoms: _109  and  _111
REMARK   47  A    between atoms: _111  and  _112
REMARK   48  A    between atoms: _114  and  _116
REMARK   49  A    between atoms: _116  and  _117
REMARK   50  A    between atoms: _119  and  _121
REMARK   51  A    between atoms: _121  and  _122
REMARK   52  A    between atoms: _121  and  _124
REMARK   53  A    between atoms: _124  and  _125
REMARK   54  A    between atoms: _128  and  _130
REMARK   55  A    between atoms: _130  and  _131
REMARK   56  A    between atoms: _133  and  _135
REMARK   57  A    between atoms: _135  and  _136
REMARK   58  A    between atoms: _138  and  _140
REMARK   59  A    between atoms: _140  and  _141
REMARK   60  A    between atoms: _140  and  _143
REMARK   61  A    between atoms: _143  and  _144
REMARK   62  A    between atoms: _147  and  _149
REMARK   63  A    between atoms: _149  and  _150
REMARK   64  A    between atoms: _149  and  _152
REMARK   65  A    between atoms: _152  and  _153
REMARK   66  A    between atoms: _156  and  _158
REMARK   67  A    between atoms: _158  and  _159
REMARK   68  A    between atoms: _158  and  _161
REMARK   69  A    between atoms: _161  and  _162
REMARK   70  A    between atoms: _166  and  _167
REMARK   71  A    between atoms: _172  and  _174
REMARK   72  A    between atoms: _174  and  _175
REMARK   73  A    between atoms: _174  and  _177
REMARK   74  A    between atoms: _180  and  _182
REMARK   75  A    between atoms: _182  and  _183
REMARK   76  A    between atoms: _182  and  _185
REMARK   77  A    between atoms: _185  and  _186
REMARK   78  A    between atoms: _191  and  _193
REMARK   79  A    between atoms: _193  and  _194
REMARK   80  A    between atoms: _193  and  _196
REMARK   81  A    between atoms: _196  and  _197
REMARK   82  A    between atoms: _200  and  _202
REMARK   83  A    between atoms: _202  and  _203
REMARK   84  A    between atoms: _202  and  _205
REMARK   85  A    between atoms: _205  and  _206
REMARK   86  A    between atoms: _209  and  _211
REMARK   87  A    between atoms: _211  and  _212
REMARK   88  A    between atoms: _214  and  _216
REMARK   89  A    between atoms: _216  and  _217
REMARK   90  A    between atoms: _216  and  _219
REMARK   91  A    between atoms: _219  and  _220
REMARK   92  A    between atoms: _220  and  _221
REMARK   93  A    between atoms: _221  and  _222
REMARK   94  A    between atoms: _231  and  _233
REMARK   95  A    between atoms: _233  and  _234
REMARK   96  A    between atoms: _233  and  _236
REMARK   97  A    between atoms: _236  and  _237
REMARK   98  A    between atoms: _242  and  _244
REMARK   99  A    between atoms: _244  and  _245
REMARK  100  A    between atoms: _244  and  _247
REMARK  101  A    between atoms: _247  and  _248
REMARK  102  A    between atoms: _248  and  _249
REMARK  103  A    between atoms: _249  and  _250
REMARK  104  A    between atoms: _259  and  _261
REMARK  105  A    between atoms: _261  and  _262
REMARK  106  A    between atoms: _261  and  _264
REMARK  107  A    between atoms: _264  and  _265
REMARK  108  A    between atoms: _268  and  _270
REMARK  109  A    between atoms: _270  and  _271
REMARK  110  A    between atoms: _270  and  _273
REMARK  111  A    between atoms: _273  and  _274
REMARK  112  A    between atoms: _277  and  _279
REMARK  113  A    between atoms: _279  and  _280
REMARK  114  A    between atoms: _279  and  _282
REMARK  115  A    between atoms: _282  and  _283
REMARK  116  A    between atoms: _286  and  _288
REMARK  117  A    between atoms: _288  and  _289
REMARK  118  A    between atoms: _288  and  _291
REMARK  119  A    between atoms: _291  and  _292
REMARK  120  A    between atoms: _295  and  _297
REMARK  121  A    between atoms: _297  and  _298
REMARK  122  A    between atoms: _300  and  _302
REMARK  123  A    between atoms: _302  and  _303
REMARK  124  A    between atoms: _306  and  _308
REMARK  125  A    between atoms: _308  and  _309
REMARK  126  A    between atoms: _308  and  _311
REMARK  127  A    between atoms: _311  and  _312
REMARK  128  A    between atoms: _315  and  _317
REMARK  129  A    between atoms: _317  and  _318
REMARK  130  A    between atoms: _317  and  _320
REMARK  131  A    between atoms: _320  and  _321
REMARK  132  A    between atoms: _324  and  _326
REMARK  133  A    between atoms: _326  and  _327
REMARK  134  A    between atoms: _326  and  _329
REMARK  135  A    between atoms: _329  and  _330
REMARK  136  A    between atoms: _333  and  _335
REMARK  137  A    between atoms: _335  and  _336
REMARK  138  A    between atoms: _335  and  _338
REMARK  139  A    between atoms: _341  and  _343
REMARK  140  A    between atoms: _343  and  _344
REMARK  141  A    between atoms: _343  and  _346
REMARK  142  A    between atoms: _346  and  _347
REMARK  143  A    between atoms: _350  and  _352
REMARK  144  A    between atoms: _352  and  _353
REMARK  145  A    between atoms: _352  and  _355
REMARK  146  A    between atoms: _355  and  _356
REMARK  147  A    between atoms: _356  and  _357
REMARK  148  A    between atoms: _357  and  _358
REMARK  149  A    between atoms: _358  and  _359
REMARK  150  A    between atoms: _363  and  _365
REMARK  151  A    between atoms: _365  and  _366
REMARK  152  A    between atoms: _365  and  _368
REMARK  153  A    between atoms: _368  and  _369
REMARK  154  A    between atoms: _369  and  _370
REMARK  155  A    between atoms: _372  and  _374
REMARK  156  A    between atoms: _374  and  _375
REMARK  157  A    between atoms: _374  and  _377
REMARK  158  A    between atoms: _377  and  _378
REMARK  159  A    between atoms: _381  and  _383
REMARK  160  A    between atoms: _383  and  _384
REMARK  161  A    between atoms: _386  and  _388
REMARK  162  A    between atoms: _388  and  _389
REMARK  163  A    between atoms: _391  and  _393
REMARK  164  A    between atoms: _393  and  _394
REMARK  165  A    between atoms: _393  and  _396
REMARK  166  A    between atoms: _396  and  _397
REMARK  167  A    between atoms: _400  and  _402
REMARK  168  A    between atoms: _402  and  _403
REMARK  169  A    between atoms: _405  and  _407
REMARK  170  A    between atoms: _407  and  _408
REMARK  171  A    between atoms: _410  and  _412
REMARK  172  A    between atoms: _412  and  _413
REMARK  173  A    between atoms: _412  and  _415
REMARK  174  A    between atoms: _415  and  _416
REMARK  175  A    between atoms: _422  and  _424
REMARK  176  A    between atoms: _424  and  _425
REMARK  177  A    between atoms: _424  and  _427
REMARK  178  A    between atoms: _427  and  _428
REMARK  179  A    between atoms: _431  and  _433
REMARK  180  A    between atoms: _433  and  _434
REMARK  181  A    between atoms: _433  and  _436
REMARK  182  A    between atoms: _439  and  _441
REMARK  183  A    between atoms: _441  and  _442
REMARK  184  A    between atoms: _441  and  _444
REMARK  185  A    between atoms: _444  and  _445
REMARK  186  A    between atoms: _448  and  _450
REMARK  187  A    between atoms: _450  and  _451
REMARK  188  A    between atoms: _450  and  _453
REMARK  189  A    between atoms: _453  and  _454
REMARK  190  A    between atoms: _458  and  _459
REMARK  191  A    between atoms: _464  and  _466
REMARK  192  A    between atoms: _466  and  _467
REMARK  193  A    between atoms: _466  and  _469
REMARK  194  A    between atoms: _472  and  _474
REMARK  195  A    between atoms: _474  and  _475
REMARK  196  A    between atoms: _474  and  _477
REMARK  197  A    between atoms: _477  and  _478
REMARK  198  A    between atoms: _483  and  _485
REMARK  199  A    between atoms: _485  and  _486
REMARK  200  A    between atoms: _485  and  _488
REMARK  201  A    between atoms: _488  and  _489
REMARK  202  A    between atoms: _492  and  _494
REMARK  203  A    between atoms: _494  and  _495
REMARK  204  A    between atoms: _494  and  _497
REMARK  205  A    between atoms: _497  and  _498
REMARK  206  A    between atoms: _501  and  _503
REMARK  207  A    between atoms: _503  and  _504
REMARK  208  A    between atoms: _506  and  _508
REMARK  209  A    between atoms: _508  and  _509
REMARK  210  A    between atoms: _508  and  _511
REMARK  211  A    between atoms: _511  and  _512
REMARK  212  A    between atoms: _512  and  _513
REMARK  213  A    between atoms: _513  and  _514
REMARK  214  A    between atoms: _523  and  _525
REMARK  215  A    between atoms: _525  and  _526
REMARK  216  A    between atoms: _525  and  _528
REMARK  217  A    between atoms: _528  and  _529
REMARK                            x       y       z     vdW  Elec       q    Type
REMARK                         _______ _______ _______ _____ _____    ______ ____
ROOT
ATOM      1  CA  ILE A   1      26.528  33.341   3.820  0.00  0.00    +0.133 C 
ENDROOT
BRANCH   1   2
ATOM      2  N   ILE A   1      25.263  32.629   3.737  0.00  0.00    -0.239 NA
ATOM      3  H   ILE A   1      25.185  31.691   4.179  0.00  0.00    +0.142 HD
ENDBRANCH   1   2
BRANCH   1   4
ATOM      4  CB  ILE A   1      26.819  33.816   5.264  0.00  0.00    +0.023 C 
ATOM      5  CG2 ILE A   1      25.738  34.808   5.739  0.00  0.00    +0.002 C 
BRANCH   4   6
ATOM      6  CG1 ILE A   1      26.941  32.627   6.226  0.00  0.00    +0.002 C 
ATOM      7  CD1 ILE A   1      27.549  33.006   7.585  0.00  0.00    +0.000 C 
ENDBRANCH   4   6
ENDBRANCH   1   4
BRANCH   1   8
ATOM      8  C   ILE A   1      27.670  32.462   3.313  0.00  0.00    +0.224 C 
ATOM      9  O   ILE A   1      27.528  31.241   3.157  0.00  0.00    -0.287 OA
ENDBRANCH   1   8
TORSDOF 4
REMARK  Name = ../refined-set-2016/3o99/3o99_pocket.pdb
REMARK  217 active torsions:
REMARK  status: ('A' for Active; 'I' for Inactive)
REMARK    1  A    between atoms: _1  and  _3
REMARK    2  A    between atoms: _3  and  _4
REMARK    3  A    between atoms: _3  and  _6
REMARK    4  A    between atoms: _6  and  _7
REMARK    5  A    between atoms: _7  and  _8
REMARK    6  A    between atoms: _8  and  _9
REMARK    7  A    between atoms: _18  and  _20
REMARK    8  A    between atoms: _20  and  _21
REMARK    9  A    between atoms: _20  and  _23
REMARK   10  A    between atoms: _23  and  _24
REMARK   11  A    between atoms: _27  and  _29
REMARK   12  A    between atoms: _29  and  _30
REMARK   13  A    between atoms: _29  and  _32
REMARK   14  A    between atoms: _32  and  _33
REMARK   15  A    between atoms: _36  and  _38
REMARK   16  A    between atoms: _38  and  _39
REMARK   17  A    between atoms: _38  and  _41
REMARK   18  A    between atoms: _41  and  _42
REMARK   19  A    between atoms: _45  and  _47
REMARK   20  A    between atoms: _47  and  _48
REMARK   21  A    between atoms: _47  and  _50
REMARK   22  A    between atoms: _50  and  _51
REMARK   23  A    between atoms: _54  and  _56
REMARK   24  A    between atoms: _56  and  _57
REMARK   25  A    between atoms: _59  and  _61
REMARK   26  A    between atoms: _61  and  _62
REMARK   27  A    between atoms: _65  and  _67
REMARK   28  A    between atoms: _67  and  _68
REMARK   29  A    between atoms: _67  and  _70
REMARK   30  A    between atoms: _70  and  _71
REMARK   31  A    between atoms: _74  and  _76
REMARK   32  A    between atoms: _76  and  _77
REMARK   33  A    between atoms: _76  and  _79
REMARK   34  A    between atoms: _79  and  _80
REMARK   35  A    between atoms: _83  and  _85
REMARK   36  A    between atoms: _85  and  _86
REMARK   37  A    between atoms: _85  and  _88
REMARK   38  A    between atoms: _88  and  _89
REMARK   39  A    between atoms: _92  and  _94
REMARK   40  A    between atoms: _94  and  _95
REMARK   41  A    between atoms: _94  and  _97
REMARK   42  A    between atoms: _100  and  _102
REMARK   43  A    between atoms: _102  and  _103
REMARK   44  A    between atoms: _102  and  _105
REMARK   45  A    between atoms: _105  and  _106
REMARK   46  A    between atoms: _109  and  _111
REMARK   47  A    between atoms: _111  and  _112
REMARK   48  A    between atoms: _114  and  _116
REMARK   49  A    between atoms: _116  and  _117
REMARK   50  A    between atoms: _119  and  _121
REMARK   51  A    between atoms: _121  and  _122
REMARK   52  A    between atoms: _121  and  _124
REMARK   53  A    between atoms: _124  and  _125
REMARK   54  A    between atoms: _128  and  _130
REMARK   55  A    between atoms: _130  and  _131
REMARK   56  A    between atoms: _133  and  _135
REMARK   57  A    between atoms: _135  and  _136
REMARK   58  A    between atoms: _138  and  _140
REMARK   59  A    between atoms: _140  and  _141
REMARK   60  A    between atoms: _140  and  _143
REMARK   61  A    between atoms: _143  and  _144
REMARK   62  A    between atoms: _147  and  _149
REMARK   63  A    between atoms: _149  and  _150
REMARK   64  A    between atoms: _149  and  _152
REMARK   65  A    between atoms: _152  and  _153
REMARK   66  A    between atoms: _156  and  _158
REMARK   67  A    between atoms: _158  and  _159
REMARK   68  A    between atoms: _158  and  _161
REMARK   69  A    between atoms: _161  and  _162
REMARK   70  A    between atoms: _166  and  _167
REMARK   71  A    between atoms: _172  and  _174
REMARK   72  A    between atoms: _174  and  _175
REMARK   73  A    between atoms: _174  and  _177
REMARK   74  A    between atoms: _180  and  _182
REMARK   75  A    between atoms: _182  and  _183
REMARK   76  A    between atoms: _182  and  _185
REMARK   77  A    between atoms: _185  and  _186
REMARK   78  A    between atoms: _191  and  _193
REMARK   79  A    between atoms: _193  and  _194
REMARK   80  A    between atoms: _193  and  _196
REMARK   81  A    between atoms: _196  and  _197
REMARK   82  A    between atoms: _200  and  _202
REMARK   83  A    between atoms: _202  and  _203
REMARK   84  A    between atoms: _202  and  _205
REMARK   85  A    between atoms: _205  and  _206
REMARK   86  A    between atoms: _209  and  _211
REMARK   87  A    between atoms: _211  and  _212
REMARK   88  A    between atoms: _214  and  _216
REMARK   89  A    between atoms: _216  and  _217
REMARK   90  A    between atoms: _216  and  _219
REMARK   91  A    between atoms: _219  and  _220
REMARK   92  A    between atoms: _220  and  _221
REMARK   93  A    between atoms: _221  and  _222
REMARK   94  A    between atoms: _231  and  _233
REMARK   95  A    between atoms: _233  and  _234
REMARK   96  A    between atoms: _233  and  _236
REMARK   97  A    between atoms: _236  and  _237
REMARK   98  A    between atoms: _242  and  _244
REMARK   99  A    between atoms: _244  and  _245
REMARK  100  A    between atoms: _244  and  _247
REMARK  101  A    between atoms: _247  and  _248
REMARK  102  A    between atoms: _248  and  _249
REMARK  103  A    between atoms: _249  and  _250
REMARK  104  A    between atoms: _259  and  _261
REMARK  105  A    between atoms: _261  and  _262
REMARK  106  A    between atoms: _261  and  _264
REMARK  107  A    between atoms: _264  and  _265
REMARK  108  A    between atoms: _268  and  _270
REMARK  109  A    between atoms: _270  and  _271
REMARK  110  A    between atoms: _270  and  _273
REMARK  111  A    between atoms: _273  and  _274
REMARK  112  A    between atoms: _277  and  _279
REMARK  113  A    between atoms: _279  and  _280
REMARK  114  A    between atoms: _279  and  _282
REMARK  115  A    between atoms: _282  and  _283
REMARK  116  A    between atoms: _286  and  _288
REMARK  117  A    between atoms: _288  and  _289
REMARK  118  A    between atoms: _288  and  _291
REMARK  119  A    between atoms: _291  and  _292
REMARK  120  A    between atoms: _295  and  _297
REMARK  121  A    between atoms: _297  and  _298
REMARK  122  A    between atoms: _300  and  _302
REMARK  123  A    between atoms: _302  and  _303
REMARK  124  A    between atoms: _306  and  _308
REMARK  125  A    between atoms: _308  and  _309
REMARK  126  A    between atoms: _308  and  _311
REMARK  127  A    between atoms: _311  and  _312
REMARK  128  A    between atoms: _315  and  _317
REMARK  129  A    between atoms: _317  and  _318
REMARK  130  A    between atoms: _317  and  _320
REMARK  131  A    between atoms: _320  and  _321
REMARK  132  A    between atoms: _324  and  _326
REMARK  133  A    between atoms: _326  and  _327
REMARK  134  A    between atoms: _326  and  _329
REMARK  135  A    between atoms: _329  and  _330
REMARK  136  A    between atoms: _333  and  _335
REMARK  137  A    between atoms: _335  and  _336
REMARK  138  A    between atoms: _335  and  _338
REMARK  139  A    between atoms: _341  and  _343
REMARK  140  A    between atoms: _343  and  _344
REMARK  141  A    between atoms: _343  and  _346
REMARK  142  A    between atoms: _346  and  _347
REMARK  143  A    between atoms: _350  and  _352
REMARK  144  A    between atoms: _352  and  _353
REMARK  145  A    between atoms: _352  and  _355
REMARK  146  A    between atoms: _355  and  _356
REMARK  147  A    between atoms: _356  and  _357
REMARK  148  A    between atoms: _357  and  _358
REMARK  149  A    between atoms: _358  and  _359
REMARK  150  A    between atoms: _363  and  _365
REMARK  151  A    between atoms: _365  and  _366
REMARK  152  A    between atoms: _365  and  _368
REMARK  153  A    between atoms: _368  and  _369
REMARK  154  A    between atoms: _369  and  _370
REMARK  155  A    between atoms: _372  and  _374
REMARK  156  A    between atoms: _374  and  _375
REMARK  157  A    between atoms: _374  and  _377
REMARK  158  A    between atoms: _377  and  _378
REMARK  159  A    between atoms: _381  and  _383
REMARK  160  A    between atoms: _383  and  _384
REMARK  161  A    between atoms: _386  and  _388
REMARK  162  A    between atoms: _388  and  _389
REMARK  163  A    between atoms: _391  and  _393
REMARK  164  A    between atoms: _393  and  _394
REMARK  165  A    between atoms: _393  and  _396
REMARK  166  A    between atoms: _396  and  _397
REMARK  167  A    between atoms: _400  and  _402
REMARK  168  A    between atoms: _402  and  _403
REMARK  169  A    between atoms: _405  and  _407
REMARK  170  A    between atoms: _407  and  _408
REMARK  171  A    between atoms: _410  and  _412
REMARK  172  A    between atoms: _412  and  _413
REMARK  173  A    between atoms: _412  and  _415
REMARK  174  A    between atoms: _415  and  _416
REMARK  175  A    between atoms: _422  and  _424
REMARK  176  A    between atoms: _424  and  _425
REMARK  177  A    between atoms: _424  and  _427
REMARK  178  A    between atoms: _427  and  _428
REMARK  179  A    between atoms: _431  and  _433
REMARK  180  A    between atoms: _433  and  _434
REMARK  181  A    between atoms: _433  and  _436
REMARK  182  A    between atoms: _439  and  _441
REMARK  183  A    between atoms: _441  and  _442
REMARK  184  A    between atoms: _441  and  _444
REMARK  185  A    between atoms: _444  and  _445
REMARK  186  A    between atoms: _448  and  _450
REMARK  187  A    between atoms: _450  and  _451
REMARK  188  A    between atoms: _450  and  _453
REMARK  189  A    between atoms: _453  and  _454
REMARK  190  A    between atoms: _458  and  _459
REMARK  191  A    between atoms: _464  and  _466
REMARK  192  A    between atoms: _466  and  _467
REMARK  193  A    between atoms: _466  and  _469
REMARK  194  A    between atoms: _472  and  _474
REMARK  195  A    between atoms: _474  and  _475
REMARK  196  A    between atoms: _474  and  _477
REMARK  197  A    between atoms: _477  and  _478
REMARK  198  A    between atoms: _483  and  _485
REMARK  199  A    between atoms: _485  and  _486
REMARK  200  A    between atoms: _485  and  _488
REMARK  201  A    between atoms: _488  and  _489
REMARK  202  A    between atoms: _492  and  _494
REMARK  203  A    between atoms: _494  and  _495
REMARK  204  A    between atoms: _494  and  _497
REMARK  205  A    between atoms: _497  and  _498
REMARK  206  A    between atoms: _501  and  _503
REMARK  207  A    between atoms: _503  and  _504
REMARK  208  A    between atoms: _506  and  _508
REMARK  209  A    between atoms: _508  and  _509
REMARK  210  A    between atoms: _508  and  _511
REMARK  211  A    between atoms: _511  and  _512
REMARK  212  A    between atoms: _512  and  _513
REMARK  213  A    between atoms: _513  and  _514
REMARK  214  A    between atoms: _523  and  _525
REMARK  215  A    between atoms: _525  and  _526
REMARK  216  A    between atoms: _525  and  _528
REMARK  217  A    between atoms: _528  and  _529
REMARK                            x       y       z     vdW  Elec       q    Type
REMARK                         _______ _______ _______ _____ _____    ______ ____
ROOT
ATOM      1  CA  LEU A   1      33.280  27.771  10.226  0.00  0.00    +0.133 C 
ENDROOT
BRANCH   1   2
ATOM      2  N   LEU A   1      33.539  26.861  11.331  0.00  0.00    -0.239 NA
ATOM      3  H   LEU A   1      32.790  26.723  12.040  0.00  0.00    +0.142 HD
ENDBRANCH   1   2
BRANCH   1   4
ATOM      4  C   LEU A   1      33.469  29.219  10.688  0.00  0.00    +0.224 C 
ATOM      5  O   LEU A   1      32.992  29.597  11.746  0.00  0.00    -0.287 OA
ENDBRANCH   1   4
BRANCH   1   6
ATOM      6  CB  LEU A   1      31.846  27.586   9.717  0.00  0.00    +0.025 C 
BRANCH   6   7
ATOM      7  CG  LEU A   1      31.392  26.150   9.463  0.00  0.00    +0.002 C 
ATOM      8  CD2 LEU A   1      29.927  26.131   9.016  0.00  0.00    +0.000 C 
ATOM      9  CD1 LEU A   1      32.281  25.481   8.421  0.00  0.00    +0.000 C 
ENDBRANCH   6   7
ENDBRANCH   1   6
TORSDOF 4
REMARK  Name = ../refined-set-2016/3o99/3o99_pocket.pdb
REMARK  217 active torsions:
REMARK  status: ('A' for Active; 'I' for Inactive)
REMARK    1  A    between atoms: _1  and  _3
REMARK    2  A    between atoms: _3  and  _4
REMARK    3  A    between atoms: _3  and  _6
REMARK    4  A    between atoms: _6  and  _7
REMARK    5  A    between atoms: _7  and  _8
REMARK    6  A    between atoms: _8  and  _9
REMARK    7  A    between atoms: _18  and  _20
REMARK    8  A    between atoms: _20  and  _21
REMARK    9  A    between atoms: _20  and  _23
REMARK   10  A    between atoms: _23  and  _24
REMARK   11  A    between atoms: _27  and  _29
REMARK   12  A    between atoms: _29  and  _30
REMARK   13  A    between atoms: _29  and  _32
REMARK   14  A    between atoms: _32  and  _33
REMARK   15  A    between atoms: _36  and  _38
REMARK   16  A    between atoms: _38  and  _39
REMARK   17  A    between atoms: _38  and  _41
REMARK   18  A    between atoms: _41  and  _42
REMARK   19  A    between atoms: _45  and  _47
REMARK   20  A    between atoms: _47  and  _48
REMARK   21  A    between atoms: _47  and  _50
REMARK   22  A    between atoms: _50  and  _51
REMARK   23  A    between atoms: _54  and  _56
REMARK   24  A    between atoms: _56  and  _57
REMARK   25  A    between atoms: _59  and  _61
REMARK   26  A    between atoms: _61  and  _62
REMARK   27  A    between atoms: _65  and  _67
REMARK   28  A    between atoms: _67  and  _68
REMARK   29  A    between atoms: _67  and  _70
REMARK   30  A    between atoms: _70  and  _71
REMARK   31  A    between atoms: _74  and  _76
REMARK   32  A    between atoms: _76  and  _77
REMARK   33  A    between atoms: _76  and  _79
REMARK   34  A    between atoms: _79  and  _80
REMARK   35  A    between atoms: _83  and  _85
REMARK   36  A    between atoms: _85  and  _86
REMARK   37  A    between atoms: _85  and  _88
REMARK   38  A    between atoms: _88  and  _89
REMARK   39  A    between atoms: _92  and  _94
REMARK   40  A    between atoms: _94  and  _95
REMARK   41  A    between atoms: _94  and  _97
REMARK   42  A    between atoms: _100  and  _102
REMARK   43  A    between atoms: _102  and  _103
REMARK   44  A    between atoms: _102  and  _105
REMARK   45  A    between atoms: _105  and  _106
REMARK   46  A    between atoms: _109  and  _111
REMARK   47  A    between atoms: _111  and  _112
REMARK   48  A    between atoms: _114  and  _116
REMARK   49  A    between atoms: _116  and  _117
REMARK   50  A    between atoms: _119  and  _121
REMARK   51  A    between atoms: _121  and  _122
REMARK   52  A    between atoms: _121  and  _124
REMARK   53  A    between atoms: _124  and  _125
REMARK   54  A    between atoms: _128  and  _130
REMARK   55  A    between atoms: _130  and  _131
REMARK   56  A    between atoms: _133  and  _135
REMARK   57  A    between atoms: _135  and  _136
REMARK   58  A    between atoms: _138  and  _140
REMARK   59  A    between atoms: _140  and  _141
REMARK   60  A    between atoms: _140  and  _143
REMARK   61  A    between atoms: _143  and  _144
REMARK   62  A    between atoms: _147  and  _149
REMARK   63  A    between atoms: _149  and  _150
REMARK   64  A    between atoms: _149  and  _152
REMARK   65  A    between atoms: _152  and  _153
REMARK   66  A    between atoms: _156  and  _158
REMARK   67  A    between atoms: _158  and  _159
REMARK   68  A    between atoms: _158  and  _161
REMARK   69  A    between atoms: _161  and  _162
REMARK   70  A    between atoms: _166  and  _167
REMARK   71  A    between atoms: _172  and  _174
REMARK   72  A    between atoms: _174  and  _175
REMARK   73  A    between atoms: _174  and  _177
REMARK   74  A    between atoms: _180  and  _182
REMARK   75  A    between atoms: _182  and  _183
REMARK   76  A    between atoms: _182  and  _185
REMARK   77  A    between atoms: _185  and  _186
REMARK   78  A    between atoms: _191  and  _193
REMARK   79  A    between atoms: _193  and  _194
REMARK   80  A    between atoms: _193  and  _196
REMARK   81  A    between atoms: _196  and  _197
REMARK   82  A    between atoms: _200  and  _202
REMARK   83  A    between atoms: _202  and  _203
REMARK   84  A    between atoms: _202  and  _205
REMARK   85  A    between atoms: _205  and  _206
REMARK   86  A    between atoms: _209  and  _211
REMARK   87  A    between atoms: _211  and  _212
REMARK   88  A    between atoms: _214  and  _216
REMARK   89  A    between atoms: _216  and  _217
REMARK   90  A    between atoms: _216  and  _219
REMARK   91  A    between atoms: _219  and  _220
REMARK   92  A    between atoms: _220  and  _221
REMARK   93  A    between atoms: _221  and  _222
REMARK   94  A    between atoms: _231  and  _233
REMARK   95  A    between atoms: _233  and  _234
REMARK   96  A    between atoms: _233  and  _236
REMARK   97  A    between atoms: _236  and  _237
REMARK   98  A    between atoms: _242  and  _244
REMARK   99  A    between atoms: _244  and  _245
REMARK  100  A    between atoms: _244  and  _247
REMARK  101  A    between atoms: _247  and  _248
REMARK  102  A    between atoms: _248  and  _249
REMARK  103  A    between atoms: _249  and  _250
REMARK  104  A    between atoms: _259  and  _261
REMARK  105  A    between atoms: _261  and  _262
REMARK  106  A    between atoms: _261  and  _264
REMARK  107  A    between atoms: _264  and  _265
REMARK  108  A    between atoms: _268  and  _270
REMARK  109  A    between atoms: _270  and  _271
REMARK  110  A    between atoms: _270  and  _273
REMARK  111  A    between atoms: _273  and  _274
REMARK  112  A    between atoms: _277  and  _279
REMARK  113  A    between atoms: _279  and  _280
REMARK  114  A    between atoms: _279  and  _282
REMARK  115  A    between atoms: _282  and  _283
REMARK  116  A    between atoms: _286  and  _288
REMARK  117  A    between atoms: _288  and  _289
REMARK  118  A    between atoms: _288  and  _291
REMARK  119  A    between atoms: _291  and  _292
REMARK  120  A    between atoms: _295  and  _297
REMARK  121  A    between atoms: _297  and  _298
REMARK  122  A    between atoms: _300  and  _302
REMARK  123  A    between atoms: _302  and  _303
REMARK  124  A    between atoms: _306  and  _308
REMARK  125  A    between atoms: _308  and  _309
REMARK  126  A    between atoms: _308  and  _311
REMARK  127  A    between atoms: _311  and  _312
REMARK  128  A    between atoms: _315  and  _317
REMARK  129  A    between atoms: _317  and  _318
REMARK  130  A    between atoms: _317  and  _320
REMARK  131  A    between atoms: _320  and  _321
REMARK  132  A    between atoms: _324  and  _326
REMARK  133  A    between atoms: _326  and  _327
REMARK  134  A    between atoms: _326  and  _329
REMARK  135  A    between atoms: _329  and  _330
REMARK  136  A    between atoms: _333  and  _335
REMARK  137  A    between atoms: _335  and  _336
REMARK  138  A    between atoms: _335  and  _338
REMARK  139  A    between atoms: _341  and  _343
REMARK  140  A    between atoms: _343  and  _344
REMARK  141  A    between atoms: _343  and  _346
REMARK  142  A    between atoms: _346  and  _347
REMARK  143  A    between atoms: _350  and  _352
REMARK  144  A    between atoms: _352  and  _353
REMARK  145  A    between atoms: _352  and  _355
REMARK  146  A    between atoms: _355  and  _356
REMARK  147  A    between atoms: _356  and  _357
REMARK  148  A    between atoms: _357  and  _358
REMARK  149  A    between atoms: _358  and  _359
REMARK  150  A    between atoms: _363  and  _365
REMARK  151  A    between atoms: _365  and  _366
REMARK  152  A    between atoms: _365  and  _368
REMARK  153  A    between atoms: _368  and  _369
REMARK  154  A    between atoms: _369  and  _370
REMARK  155  A    between atoms: _372  and  _374
REMARK  156  A    between atoms: _374  and  _375
REMARK  157  A    between atoms: _374  and  _377
REMARK  158  A    between atoms: _377  and  _378
REMARK  159  A    between atoms: _381  and  _383
REMARK  160  A    between atoms: _383  and  _384
REMARK  161  A    between atoms: _386  and  _388
REMARK  162  A    between atoms: _388  and  _389
REMARK  163  A    between atoms: _391  and  _393
REMARK  164  A    between atoms: _393  and  _394
REMARK  165  A    between atoms: _393  and  _396
REMARK  166  A    between atoms: _396  and  _397
REMARK  167  A    between atoms: _400  and  _402
REMARK  168  A    between atoms: _402  and  _403
REMARK  169  A    between atoms: _405  and  _407
REMARK  170  A    between atoms: _407  and  _408
REMARK  171  A    between atoms: _410  and  _412
REMARK  172  A    between atoms: _412  and  _413
REMARK  173  A    between atoms: _412  and  _415
REMARK  174  A    between atoms: _415  and  _416
REMARK  175  A    between atoms: _422  and  _424
REMARK  176  A    between atoms: _424  and  _425
REMARK  177  A    between atoms: _424  and  _427
REMARK  178  A    between atoms: _427  and  _428
REMARK  179  A    between atoms: _431  and  _433
REMARK  180  A    between atoms: _433  and  _434
REMARK  181  A    between atoms: _433  and  _436
REMARK  182  A    between atoms: _439  and  _441
REMARK  183  A    between atoms: _441  and  _442
REMARK  184  A    between atoms: _441  and  _444
REMARK  185  A    between atoms: _444  and  _445
REMARK  186  A    between atoms: _448  and  _450
REMARK  187  A    between atoms: _450  and  _451
REMARK  188  A    between atoms: _450  and  _453
REMARK  189  A    between atoms: _453  and  _454
REMARK  190  A    between atoms: _458  and  _459
REMARK  191  A    between atoms: _464  and  _466
REMARK  192  A    between atoms: _466  and  _467
REMARK  193  A    between atoms: _466  and  _469
REMARK  194  A    between atoms: _472  and  _474
REMARK  195  A    between atoms: _474  and  _475
REMARK  196  A    between atoms: _474  and  _477
REMARK  197  A    between atoms: _477  and  _478
REMARK  198  A    between atoms: _483  and  _485
REMARK  199  A    between atoms: _485  and  _486
REMARK  200  A    between atoms: _485  and  _488
REMARK  201  A    between atoms: _488  and  _489
REMARK  202  A    between atoms: _492  and  _494
REMARK  203  A    between atoms: _494  and  _495
REMARK  204  A    between atoms: _494  and  _497
REMARK  205  A    between atoms: _497  and  _498
REMARK  206  A    between atoms: _501  and  _503
REMARK  207  A    between atoms: _503  and  _504
REMARK  208  A    between atoms: _506  and  _508
REMARK  209  A    between atoms: _508  and  _509
REMARK  210  A    between atoms: _508  and  _511
REMARK  211  A    between atoms: _511  and  _512
REMARK  212  A    between atoms: _512  and  _513
REMARK  213  A    between atoms: _513  and  _514
REMARK  214  A    between atoms: _523  and  _525
REMARK  215  A    between atoms: _525  and  _526
REMARK  216  A    between atoms: _525  and  _528
REMARK  217  A    between atoms: _528  and  _529
REMARK                            x       y       z     vdW  Elec       q    Type
REMARK                         _______ _______ _______ _____ _____    ______ ____
ROOT
ATOM      1  C   ILE A   5      28.616  28.651  18.117  0.00  0.00    +0.241 C 
ATOM      2  N   ILE A   6      28.372  27.916  19.200  0.00  0.00    -0.297 N 
ATOM      3  H   ILE A   6      27.847  28.336  19.993  0.00  0.00    +0.150 HD
ATOM      4  O   ILE A   5      29.333  28.273  17.186  0.00  0.00    -0.273 OA
ENDROOT
BRANCH   2   5
ATOM      5  CA  ILE A   6      28.821  26.550  19.296  0.00  0.00    +0.149 C 
BRANCH   5   6
ATOM      6  C   ILE A   6      27.646  25.650  18.925  0.00  0.00    +0.241 C 
ATOM      7  O   ILE A   6      26.635  25.617  19.633  0.00  0.00    -0.273 OA
ATOM      8  N   GLY A   7      27.784  24.926  17.819  0.00  0.00    -0.295 N 
ATOM      9  H   GLY A   7      28.682  24.974  17.297  0.00  0.00    +0.150 HD
BRANCH   8  10
ATOM     10  CA  GLY A   7      26.723  24.068  17.311  0.00  0.00    +0.176 C 
BRANCH  10  11
ATOM     11  C   GLY A   7      26.879  22.610  17.689  0.00  0.00    +0.243 C 
ATOM     12  O   GLY A   7      27.827  22.232  18.378  0.00  0.00    -0.273 OA
ATOM     13  N   ARG A   8      25.950  21.784  17.210  0.00  0.00    -0.297 N 
ATOM     14  H   ARG A   8      25.257  22.146  16.525  0.00  0.00    +0.150 HD
BRANCH  13  15
ATOM     15  CA  ARG A   8      25.878  20.388  17.619  0.00  0.00    +0.149 C 
BRANCH  15  16
ATOM     16  C   ARG A   8      27.137  19.562  17.315  0.00  0.00    +0.241 C 
ATOM     17  O   ARG A   8      27.421  18.605  18.038  0.00  0.00    -0.273 OA
ATOM     18  N   ASN A   9      27.896  19.909  16.281  0.00  0.00    -0.298 N 
ATOM     19  H   ASN A   9      27.644  20.730  15.694  0.00  0.00    +0.150 HD
BRANCH  18  20
ATOM     20  CA  ASN A   9      29.093  19.119  15.980  0.00  0.00    +0.146 C 
BRANCH  20  21
ATOM     21  C   ASN A   9      30.062  19.080  17.163  0.00  0.00    +0.227 C 
ATOM     22  O   ASN A   9      30.674  18.042  17.434  0.00  0.00    -0.286 OA
ENDBRANCH  20  21
BRANCH  20  23
ATOM     23  CB  ASN A   9      29.773  19.589  14.682  0.00  0.00    +0.112 C 
BRANCH  23  24
ATOM     24  CG  ASN A   9      30.471  20.927  14.829  0.00  0.00    +0.222 C 
ATOM     25  OD1 ASN A   9      29.863  21.900  15.270  0.00  0.00    -0.275 OA
ATOM     26  ND2 ASN A   9      31.756  20.984  14.446  0.00  0.00    -0.329 N 
ATOM     27 HD21 ASN A   9      32.280  21.879  14.516  0.00  0.00    +0.145 HD
ATOM     28 HD22 ASN A   9      32.227  20.133  14.079  0.00  0.00    +0.145 HD
ENDBRANCH  23  24
ENDBRANCH  20  23
ENDBRANCH  18  20
ENDBRANCH  15  16
BRANCH  15  29
ATOM     29  CB  ARG A   8      24.640  19.707  17.033  0.00  0.00    +0.033 C 
BRANCH  29  30
ATOM     30  CG  ARG A   8      23.314  20.270  17.579  0.00  0.00    +0.045 C 
BRANCH  30  31
ATOM     31  CD  ARG A   8      22.080  19.475  17.092  0.00  0.00    +0.174 C 
BRANCH  31  32
ATOM     32  NE  ARG A   8      22.008  19.459  15.630  0.00  0.00    -0.265 N 
ATOM     33  HE  ARG A   8      21.585  20.290  15.170  0.00  0.00    +0.259 HD
ATOM     34  CZ  ARG A   8      22.434  18.478  14.833  0.00  0.00    +0.342 C 
ATOM     35  NH2 ARG A   8      22.964  17.361  15.304  0.00  0.00    -0.292 N 
ATOM     36 HH21 ARG A   8      23.061  17.224  16.330  0.00  0.00    +0.255 HD
ATOM     37 HH22 ARG A   8      23.284  16.620  14.648  0.00  0.00    +0.255 HD
ATOM     38  NH1 ARG A   8      22.339  18.628  13.523  0.00  0.00    -0.292 N 
ATOM     39 HH11 ARG A   8      21.937  19.502  13.127  0.00  0.00    +0.255 HD
ATOM     40 HH12 ARG A   8      22.667  17.872  12.888  0.00  0.00    +0.255 HD
ENDBRANCH  31  32
ENDBRANCH  30  31
ENDBRANCH  29  30
ENDBRANCH  15  29
ENDBRANCH  13  15
ENDBRANCH  10  11
ENDBRANCH   8  10
ENDBRANCH   5   6
BRANCH   5  41
ATOM     41  CB  ILE A   6      29.324  26.189  20.700  0.00  0.00    +0.027 C 
ATOM     42  CG2 ILE A   6      29.776  24.722  20.689  0.00  0.00    +0.002 C 
BRANCH  41  43
ATOM     43  CG1 ILE A   6      30.441  27.142  21.166  0.00  0.00    +0.002 C 
ATOM     44  CD1 ILE A   6      31.625  27.327  20.179  0.00  0.00    +0.000 C 
ENDBRANCH  41  43
ENDBRANCH   5  41
ENDBRANCH   2   5
BRANCH   1  45
ATOM     45  CA  ILE A   5      27.922  30.000  18.091  0.00  0.00    +0.149 C 
BRANCH  45  48
ATOM     46  C   ASN A   4      28.993  32.127  18.456  0.00  0.00    +0.241 C 
ATOM     47  O   ASN A   4      28.407  32.291  19.537  0.00  0.00    -0.273 OA
ATOM     48  N   ILE A   5      28.808  31.071  17.679  0.00  0.00    -0.297 N 
ATOM     49  H   ILE A   5      29.302  31.009  16.766  0.00  0.00    +0.150 HD
BRANCH  46  50
ATOM     50  CA  ASN A   4      29.988  33.164  17.954  0.00  0.00    +0.158 C 
BRANCH  50  52
ATOM     51  C   VAL A   3      28.303  34.710  17.151  0.00  0.00    +0.241 C 
ATOM     52  N   ASN A   4      29.334  34.479  17.962  0.00  0.00    -0.297 N 
ATOM     53  H   ASN A   4      29.675  35.227  18.599  0.00  0.00    +0.150 HD
ATOM     54  O   VAL A   3      27.907  33.877  16.325  0.00  0.00    -0.273 OA
BRANCH  51  55
ATOM     55  CA  VAL A   3      27.598  36.051  17.277  0.00  0.00    +0.149 C 
BRANCH  55  58
ATOM     56  C   PRO A   2      26.617  37.583  15.643  0.00  0.00    +0.241 C 
ATOM     57  O   PRO A   2      26.914  38.579  16.307  0.00  0.00    -0.273 OA
ATOM     58  N   VAL A   3      26.862  36.341  16.047  0.00  0.00    -0.297 N 
ATOM     59  H   VAL A   3      26.519  35.548  15.469  0.00  0.00    +0.150 HD
BRANCH  56  62
ATOM     60  C   THR A   1      27.350  36.420  12.937  0.00  0.00    +0.244 C 
ATOM     61  N   PRO A   2      26.098  36.671  13.339  0.00  0.00    -0.272 N 
ATOM     62  CA  PRO A   2      25.871  37.746  14.319  0.00  0.00    +0.152 C 
ATOM     63  CB  PRO A   2      24.368  37.684  14.604  0.00  0.00    +0.031 C 
ATOM     64  CG  PRO A   2      23.776  36.798  13.579  0.00  0.00    +0.024 C 
ATOM     65  CD  PRO A   2      24.853  36.001  12.920  0.00  0.00    +0.094 C 
ATOM     66  O   THR A   1      28.303  37.113  13.303  0.00  0.00    -0.273 OA
BRANCH  60  67
ATOM     67  CA  THR A   1      27.570  35.238  11.995  0.00  0.00    +0.172 C 
BRANCH  67  68
ATOM     68  CB  THR A   1      27.956  33.955  12.791  0.00  0.00    +0.135 C 
ATOM     69  CG2 THR A   1      29.332  34.087  13.447  0.00  0.00    +0.034 C 
BRANCH  68  70
ATOM     70  OG1 THR A   1      26.970  33.670  13.789  0.00  0.00    -0.383 OA
ATOM     71  HG1 THR A   1      26.908  34.433  14.417  0.00  0.00    +0.210 HD
ENDBRANCH  68  70
ENDBRANCH  67  68
BRANCH  67  72
ATOM     72  N   THR A   1      28.628  35.609  11.058  0.00  0.00    -0.236 NA
ATOM     73  H   THR A   1      29.608  35.349  11.289  0.00  0.00    +0.142 HD
ENDBRANCH  67  72
ENDBRANCH  60  67
ENDBRANCH  56  62
ENDBRANCH  55  58
BRANCH  55  74
ATOM     74  CB  VAL A   3      26.688  36.019  18.532  0.00  0.00    +0.027 C 
ATOM     75  CG2 VAL A   3      25.865  37.307  18.667  0.00  0.00    +0.002 C 
ATOM     76  CG1 VAL A   3      25.769  34.823  18.502  0.00  0.00    +0.002 C 
ENDBRANCH  55  74
ENDBRANCH  51  55
ENDBRANCH  50  52
BRANCH  50  77
ATOM     77  CB  ASN A   4      31.215  33.073  18.871  0.00  0.00    +0.114 C 
BRANCH  77  78
ATOM     78  CG  ASN A   4      32.326  34.021  18.489  0.00  0.00    +0.222 C 
ATOM     79  ND2 ASN A   4      32.931  34.615  19.512  0.00  0.00    -0.329 N 
ATOM     80 HD21 ASN A   4      32.612  34.429  20.484  0.00  0.00    +0.145 HD
ATOM     81 HD22 ASN A   4      33.724  35.266  19.341  0.00  0.00    +0.145 HD
ATOM     82  OD1 ASN A   4      32.663  34.204  17.306  0.00  0.00    -0.275 OA
ENDBRANCH  77  78
ENDBRANCH  50  77
ENDBRANCH  46  50
ENDBRANCH  45  48
BRANCH  45  83
ATOM     83  CB  ILE A   5      26.619  29.938  17.249  0.00  0.00    +0.027 C 
ATOM     84  CG2 ILE A   5      25.812  31.242  17.415  0.00  0.00    +0.002 C 
BRANCH  83  85
ATOM     85  CG1 ILE A   5      26.888  29.651  15.768  0.00  0.00    +0.002 C 
ATOM     86  CD1 ILE A   5      25.631  29.585  14.938  0.00  0.00    +0.000 C 
ENDBRANCH  83  85
ENDBRANCH  45  83
ENDBRANCH   1  45
TORSDOF 32
REMARK  Name = ../refined-set-2016/3o99/3o99_pocket.pdb
REMARK  217 active torsions:
REMARK  status: ('A' for Active; 'I' for Inactive)
REMARK    1  A    between atoms: _1  and  _3
REMARK    2  A    between atoms: _3  and  _4
REMARK    3  A    between atoms: _3  and  _6
REMARK    4  A    between atoms: _6  and  _7
REMARK    5  A    between atoms: _7  and  _8
REMARK    6  A    between atoms: _8  and  _9
REMARK    7  A    between atoms: _18  and  _20
REMARK    8  A    between atoms: _20  and  _21
REMARK    9  A    between atoms: _20  and  _23
REMARK   10  A    between atoms: _23  and  _24
REMARK   11  A    between atoms: _27  and  _29
REMARK   12  A    between atoms: _29  and  _30
REMARK   13  A    between atoms: _29  and  _32
REMARK   14  A    between atoms: _32  and  _33
REMARK   15  A    between atoms: _36  and  _38
REMARK   16  A    between atoms: _38  and  _39
REMARK   17  A    between atoms: _38  and  _41
REMARK   18  A    between atoms: _41  and  _42
REMARK   19  A    between atoms: _45  and  _47
REMARK   20  A    between atoms: _47  and  _48
REMARK   21  A    between atoms: _47  and  _50
REMARK   22  A    between atoms: _50  and  _51
REMARK   23  A    between atoms: _54  and  _56
REMARK   24  A    between atoms: _56  and  _57
REMARK   25  A    between atoms: _59  and  _61
REMARK   26  A    between atoms: _61  and  _62
REMARK   27  A    between atoms: _65  and  _67
REMARK   28  A    between atoms: _67  and  _68
REMARK   29  A    between atoms: _67  and  _70
REMARK   30  A    between atoms: _70  and  _71
REMARK   31  A    between atoms: _74  and  _76
REMARK   32  A    between atoms: _76  and  _77
REMARK   33  A    between atoms: _76  and  _79
REMARK   34  A    between atoms: _79  and  _80
REMARK   35  A    between atoms: _83  and  _85
REMARK   36  A    between atoms: _85  and  _86
REMARK   37  A    between atoms: _85  and  _88
REMARK   38  A    between atoms: _88  and  _89
REMARK   39  A    between atoms: _92  and  _94
REMARK   40  A    between atoms: _94  and  _95
REMARK   41  A    between atoms: _94  and  _97
REMARK   42  A    between atoms: _100  and  _102
REMARK   43  A    between atoms: _102  and  _103
REMARK   44  A    between atoms: _102  and  _105
REMARK   45  A    between atoms: _105  and  _106
REMARK   46  A    between atoms: _109  and  _111
REMARK   47  A    between atoms: _111  and  _112
REMARK   48  A    between atoms: _114  and  _116
REMARK   49  A    between atoms: _116  and  _117
REMARK   50  A    between atoms: _119  and  _121
REMARK   51  A    between atoms: _121  and  _122
REMARK   52  A    between atoms: _121  and  _124
REMARK   53  A    between atoms: _124  and  _125
REMARK   54  A    between atoms: _128  and  _130
REMARK   55  A    between atoms: _130  and  _131
REMARK   56  A    between atoms: _133  and  _135
REMARK   57  A    between atoms: _135  and  _136
REMARK   58  A    between atoms: _138  and  _140
REMARK   59  A    between atoms: _140  and  _141
REMARK   60  A    between atoms: _140  and  _143
REMARK   61  A    between atoms: _143  and  _144
REMARK   62  A    between atoms: _147  and  _149
REMARK   63  A    between atoms: _149  and  _150
REMARK   64  A    between atoms: _149  and  _152
REMARK   65  A    between atoms: _152  and  _153
REMARK   66  A    between atoms: _156  and  _158
REMARK   67  A    between atoms: _158  and  _159
REMARK   68  A    between atoms: _158  and  _161
REMARK   69  A    between atoms: _161  and  _162
REMARK   70  A    between atoms: _166  and  _167
REMARK   71  A    between atoms: _172  and  _174
REMARK   72  A    between atoms: _174  and  _175
REMARK   73  A    between atoms: _174  and  _177
REMARK   74  A    between atoms: _180  and  _182
REMARK   75  A    between atoms: _182  and  _183
REMARK   76  A    between atoms: _182  and  _185
REMARK   77  A    between atoms: _185  and  _186
REMARK   78  A    between atoms: _191  and  _193
REMARK   79  A    between atoms: _193  and  _194
REMARK   80  A    between atoms: _193  and  _196
REMARK   81  A    between atoms: _196  and  _197
REMARK   82  A    between atoms: _200  and  _202
REMARK   83  A    between atoms: _202  and  _203
REMARK   84  A    between atoms: _202  and  _205
REMARK   85  A    between atoms: _205  and  _206
REMARK   86  A    between atoms: _209  and  _211
REMARK   87  A    between atoms: _211  and  _212
REMARK   88  A    between atoms: _214  and  _216
REMARK   89  A    between atoms: _216  and  _217
REMARK   90  A    between atoms: _216  and  _219
REMARK   91  A    between atoms: _219  and  _220
REMARK   92  A    between atoms: _220  and  _221
REMARK   93  A    between atoms: _221  and  _222
REMARK   94  A    between atoms: _231  and  _233
REMARK   95  A    between atoms: _233  and  _234
REMARK   96  A    between atoms: _233  and  _236
REMARK   97  A    between atoms: _236  and  _237
REMARK   98  A    between atoms: _242  and  _244
REMARK   99  A    between atoms: _244  and  _245
REMARK  100  A    between atoms: _244  and  _247
REMARK  101  A    between atoms: _247  and  _248
REMARK  102  A    between atoms: _248  and  _249
REMARK  103  A    between atoms: _249  and  _250
REMARK  104  A    between atoms: _259  and  _261
REMARK  105  A    between atoms: _261  and  _262
REMARK  106  A    between atoms: _261  and  _264
REMARK  107  A    between atoms: _264  and  _265
REMARK  108  A    between atoms: _268  and  _270
REMARK  109  A    between atoms: _270  and  _271
REMARK  110  A    between atoms: _270  and  _273
REMARK  111  A    between atoms: _273  and  _274
REMARK  112  A    between atoms: _277  and  _279
REMARK  113  A    between atoms: _279  and  _280
REMARK  114  A    between atoms: _279  and  _282
REMARK  115  A    between atoms: _282  and  _283
REMARK  116  A    between atoms: _286  and  _288
REMARK  117  A    between atoms: _288  and  _289
REMARK  118  A    between atoms: _288  and  _291
REMARK  119  A    between atoms: _291  and  _292
REMARK  120  A    between atoms: _295  and  _297
REMARK  121  A    between atoms: _297  and  _298
REMARK  122  A    between atoms: _300  and  _302
REMARK  123  A    between atoms: _302  and  _303
REMARK  124  A    between atoms: _306  and  _308
REMARK  125  A    between atoms: _308  and  _309
REMARK  126  A    between atoms: _308  and  _311
REMARK  127  A    between atoms: _311  and  _312
REMARK  128  A    between atoms: _315  and  _317
REMARK  129  A    between atoms: _317  and  _318
REMARK  130  A    between atoms: _317  and  _320
REMARK  131  A    between atoms: _320  and  _321
REMARK  132  A    between atoms: _324  and  _326
REMARK  133  A    between atoms: _326  and  _327
REMARK  134  A    between atoms: _326  and  _329
REMARK  135  A    between atoms: _329  and  _330
REMARK  136  A    between atoms: _333  and  _335
REMARK  137  A    between atoms: _335  and  _336
REMARK  138  A    between atoms: _335  and  _338
REMARK  139  A    between atoms: _341  and  _343
REMARK  140  A    between atoms: _343  and  _344
REMARK  141  A    between atoms: _343  and  _346
REMARK  142  A    between atoms: _346  and  _347
REMARK  143  A    between atoms: _350  and  _352
REMARK  144  A    between atoms: _352  and  _353
REMARK  145  A    between atoms: _352  and  _355
REMARK  146  A    between atoms: _355  and  _356
REMARK  147  A    between atoms: _356  and  _357
REMARK  148  A    between atoms: _357  and  _358
REMARK  149  A    between atoms: _358  and  _359
REMARK  150  A    between atoms: _363  and  _365
REMARK  151  A    between atoms: _365  and  _366
REMARK  152  A    between atoms: _365  and  _368
REMARK  153  A    between atoms: _368  and  _369
REMARK  154  A    between atoms: _369  and  _370
REMARK  155  A    between atoms: _372  and  _374
REMARK  156  A    between atoms: _374  and  _375
REMARK  157  A    between atoms: _374  and  _377
REMARK  158  A    between atoms: _377  and  _378
REMARK  159  A    between atoms: _381  and  _383
REMARK  160  A    between atoms: _383  and  _384
REMARK  161  A    between atoms: _386  and  _388
REMARK  162  A    between atoms: _388  and  _389
REMARK  163  A    between atoms: _391  and  _393
REMARK  164  A    between atoms: _393  and  _394
REMARK  165  A    between atoms: _393  and  _396
REMARK  166  A    between atoms: _396  and  _397
REMARK  167  A    between atoms: _400  and  _402
REMARK  168  A    between atoms: _402  and  _403
REMARK  169  A    between atoms: _405  and  _407
REMARK  170  A    between atoms: _407  and  _408
REMARK  171  A    between atoms: _410  and  _412
REMARK  172  A    between atoms: _412  and  _413
REMARK  173  A    between atoms: _412  and  _415
REMARK  174  A    between atoms: _415  and  _416
REMARK  175  A    between atoms: _422  and  _424
REMARK  176  A    between atoms: _424  and  _425
REMARK  177  A    between atoms: _424  and  _427
REMARK  178  A    between atoms: _427  and  _428
REMARK  179  A    between atoms: _431  and  _433
REMARK  180  A    between atoms: _433  and  _434
REMARK  181  A    between atoms: _433  and  _436
REMARK  182  A    between atoms: _439  and  _441
REMARK  183  A    between atoms: _441  and  _442
REMARK  184  A    between atoms: _441  and  _444
REMARK  185  A    between atoms: _444  and  _445
REMARK  186  A    between atoms: _448  and  _450
REMARK  187  A    between atoms: _450  and  _451
REMARK  188  A    between atoms: _450  and  _453
REMARK  189  A    between atoms: _453  and  _454
REMARK  190  A    between atoms: _458  and  _459
REMARK  191  A    between atoms: _464  and  _466
REMARK  192  A    between atoms: _466  and  _467
REMARK  193  A    between atoms: _466  and  _469
REMARK  194  A    between atoms: _472  and  _474
REMARK  195  A    between atoms: _474  and  _475
REMARK  196  A    between atoms: _474  and  _477
REMARK  197  A    between atoms: _477  and  _478
REMARK  198  A    between atoms: _483  and  _485
REMARK  199  A    between atoms: _485  and  _486
REMARK  200  A    between atoms: _485  and  _488
REMARK  201  A    between atoms: _488  and  _489
REMARK  202  A    between atoms: _492  and  _494
REMARK  203  A    between atoms: _494  and  _495
REMARK  204  A    between atoms: _494  and  _497
REMARK  205  A    between atoms: _497  and  _498
REMARK  206  A    between atoms: _501  and  _503
REMARK  207  A    between atoms: _503  and  _504
REMARK  208  A    between atoms: _506  and  _508
REMARK  209  A    between atoms: _508  and  _509
REMARK  210  A    between atoms: _508  and  _511
REMARK  211  A    between atoms: _511  and  _512
REMARK  212  A    between atoms: _512  and  _513
REMARK  213  A    between atoms: _513  and  _514
REMARK  214  A    between atoms: _523  and  _525
REMARK  215  A    between atoms: _525  and  _526
REMARK  216  A    between atoms: _525  and  _528
REMARK  217  A    between atoms: _528  and  _529
REMARK                            x       y       z     vdW  Elec       q    Type
REMARK                         _______ _______ _______ _____ _____    ______ ____
ROOT
ATOM      1  NE  ARG A   1      18.908  20.509  11.155  0.00  0.00    -0.265 N 
ATOM      2  HE  ARG A   1      19.878  20.149  11.050  0.00  0.00    +0.259 HD
ATOM      3  CZ  ARG A   1      18.543  21.545  10.396  0.00  0.00    +0.342 C 
ATOM      4  NH2 ARG A   1      17.334  22.093  10.515  0.00  0.00    -0.292 N 
ATOM      5 HH21 ARG A   1      16.657  21.714  11.208  0.00  0.00    +0.255 HD
ATOM      6 HH22 ARG A   1      17.067  22.900   9.915  0.00  0.00    +0.255 HD
ATOM      7  NH1 ARG A   1      19.411  22.067   9.537  0.00  0.00    -0.292 N 
ATOM      8 HH11 ARG A   1      20.369  21.669   9.459  0.00  0.00    +0.255 HD
ATOM      9 HH12 ARG A   1      19.133  22.874   8.943  0.00  0.00    +0.255 HD
ENDROOT
BRANCH   1  10
ATOM     10  CD  ARG A   1      18.035  19.847  12.124  0.00  0.00    +0.174 C 
BRANCH  10  11
ATOM     11  CG  ARG A   1      18.809  19.055  13.165  0.00  0.00    +0.045 C 
BRANCH  11  12
ATOM     12  CB  ARG A   1      17.865  18.586  14.250  0.00  0.00    +0.029 C 
BRANCH  12  13
ATOM     13  CA  ARG A   1      18.548  17.974  15.462  0.00  0.00    +0.133 C 
BRANCH  13  14
ATOM     14  N   ARG A   1      19.255  16.750  15.117  0.00  0.00    -0.239 NA
ATOM     15  H   ARG A   1      19.230  16.406  14.136  0.00  0.00    +0.142 HD
ENDBRANCH  13  14
BRANCH  13  16
ATOM     16  C   ARG A   1      17.495  17.660  16.522  0.00  0.00    +0.224 C 
ATOM     17  O   ARG A   1      16.766  16.679  16.391  0.00  0.00    -0.287 OA
ENDBRANCH  13  16
ENDBRANCH  12  13
ENDBRANCH  11  12
ENDBRANCH  10  11
ENDBRANCH   1  10
TORSDOF 6
REMARK  Name = ../refined-set-2016/3o99/3o99_pocket.pdb
REMARK  217 active torsions:
REMARK  status: ('A' for Active; 'I' for Inactive)
REMARK    1  A    between atoms: _1  and  _3
REMARK    2  A    between atoms: _3  and  _4
REMARK    3  A    between atoms: _3  and  _6
REMARK    4  A    between atoms: _6  and  _7
REMARK    5  A    between atoms: _7  and  _8
REMARK    6  A    between atoms: _8  and  _9
REMARK    7  A    between atoms: _18  and  _20
REMARK    8  A    between atoms: _20  and  _21
REMARK    9  A    between atoms: _20  and  _23
REMARK   10  A    between atoms: _23  and  _24
REMARK   11  A    between atoms: _27  and  _29
REMARK   12  A    between atoms: _29  and  _30
REMARK   13  A    between atoms: _29  and  _32
REMARK   14  A    between atoms: _32  and  _33
REMARK   15  A    between atoms: _36  and  _38
REMARK   16  A    between atoms: _38  and  _39
REMARK   17  A    between atoms: _38  and  _41
REMARK   18  A    between atoms: _41  and  _42
REMARK   19  A    between atoms: _45  and  _47
REMARK   20  A    between atoms: _47  and  _48
REMARK   21  A    between atoms: _47  and  _50
REMARK   22  A    between atoms: _50  and  _51
REMARK   23  A    between atoms: _54  and  _56
REMARK   24  A    between atoms: _56  and  _57
REMARK   25  A    between atoms: _59  and  _61
REMARK   26  A    between atoms: _61  and  _62
REMARK   27  A    between atoms: _65  and  _67
REMARK   28  A    between atoms: _67  and  _68
REMARK   29  A    between atoms: _67  and  _70
REMARK   30  A    between atoms: _70  and  _71
REMARK   31  A    between atoms: _74  and  _76
REMARK   32  A    between atoms: _76  and  _77
REMARK   33  A    between atoms: _76  and  _79
REMARK   34  A    between atoms: _79  and  _80
REMARK   35  A    between atoms: _83  and  _85
REMARK   36  A    between atoms: _85  and  _86
REMARK   37  A    between atoms: _85  and  _88
REMARK   38  A    between atoms: _88  and  _89
REMARK   39  A    between atoms: _92  and  _94
REMARK   40  A    between atoms: _94  and  _95
REMARK   41  A    between atoms: _94  and  _97
REMARK   42  A    between atoms: _100  and  _102
REMARK   43  A    between atoms: _102  and  _103
REMARK   44  A    between atoms: _102  and  _105
REMARK   45  A    between atoms: _105  and  _106
REMARK   46  A    between atoms: _109  and  _111
REMARK   47  A    between atoms: _111  and  _112
REMARK   48  A    between atoms: _114  and  _116
REMARK   49  A    between atoms: _116  and  _117
REMARK   50  A    between atoms: _119  and  _121
REMARK   51  A    between atoms: _121  and  _122
REMARK   52  A    between atoms: _121  and  _124
REMARK   53  A    between atoms: _124  and  _125
REMARK   54  A    between atoms: _128  and  _130
REMARK   55  A    between atoms: _130  and  _131
REMARK   56  A    between atoms: _133  and  _135
REMARK   57  A    between atoms: _135  and  _136
REMARK   58  A    between atoms: _138  and  _140
REMARK   59  A    between atoms: _140  and  _141
REMARK   60  A    between atoms: _140  and  _143
REMARK   61  A    between atoms: _143  and  _144
REMARK   62  A    between atoms: _147  and  _149
REMARK   63  A    between atoms: _149  and  _150
REMARK   64  A    between atoms: _149  and  _152
REMARK   65  A    between atoms: _152  and  _153
REMARK   66  A    between atoms: _156  and  _158
REMARK   67  A    between atoms: _158  and  _159
REMARK   68  A    between atoms: _158  and  _161
REMARK   69  A    between atoms: _161  and  _162
REMARK   70  A    between atoms: _166  and  _167
REMARK   71  A    between atoms: _172  and  _174
REMARK   72  A    between atoms: _174  and  _175
REMARK   73  A    between atoms: _174  and  _177
REMARK   74  A    between atoms: _180  and  _182
REMARK   75  A    between atoms: _182  and  _183
REMARK   76  A    between atoms: _182  and  _185
REMARK   77  A    between atoms: _185  and  _186
REMARK   78  A    between atoms: _191  and  _193
REMARK   79  A    between atoms: _193  and  _194
REMARK   80  A    between atoms: _193  and  _196
REMARK   81  A    between atoms: _196  and  _197
REMARK   82  A    between atoms: _200  and  _202
REMARK   83  A    between atoms: _202  and  _203
REMARK   84  A    between atoms: _202  and  _205
REMARK   85  A    between atoms: _205  and  _206
REMARK   86  A    between atoms: _209  and  _211
REMARK   87  A    between atoms: _211  and  _212
REMARK   88  A    between atoms: _214  and  _216
REMARK   89  A    between atoms: _216  and  _217
REMARK   90  A    between atoms: _216  and  _219
REMARK   91  A    between atoms: _219  and  _220
REMARK   92  A    between atoms: _220  and  _221
REMARK   93  A    between atoms: _221  and  _222
REMARK   94  A    between atoms: _231  and  _233
REMARK   95  A    between atoms: _233  and  _234
REMARK   96  A    between atoms: _233  and  _236
REMARK   97  A    between atoms: _236  and  _237
REMARK   98  A    between atoms: _242  and  _244
REMARK   99  A    between atoms: _244  and  _245
REMARK  100  A    between atoms: _244  and  _247
REMARK  101  A    between atoms: _247  and  _248
REMARK  102  A    between atoms: _248  and  _249
REMARK  103  A    between atoms: _249  and  _250
REMARK  104  A    between atoms: _259  and  _261
REMARK  105  A    between atoms: _261  and  _262
REMARK  106  A    between atoms: _261  and  _264
REMARK  107  A    between atoms: _264  and  _265
REMARK  108  A    between atoms: _268  and  _270
REMARK  109  A    between atoms: _270  and  _271
REMARK  110  A    between atoms: _270  and  _273
REMARK  111  A    between atoms: _273  and  _274
REMARK  112  A    between atoms: _277  and  _279
REMARK  113  A    between atoms: _279  and  _280
REMARK  114  A    between atoms: _279  and  _282
REMARK  115  A    between atoms: _282  and  _283
REMARK  116  A    between atoms: _286  and  _288
REMARK  117  A    between atoms: _288  and  _289
REMARK  118  A    between atoms: _288  and  _291
REMARK  119  A    between atoms: _291  and  _292
REMARK  120  A    between atoms: _295  and  _297
REMARK  121  A    between atoms: _297  and  _298
REMARK  122  A    between atoms: _300  and  _302
REMARK  123  A    between atoms: _302  and  _303
REMARK  124  A    between atoms: _306  and  _308
REMARK  125  A    between atoms: _308  and  _309
REMARK  126  A    between atoms: _308  and  _311
REMARK  127  A    between atoms: _311  and  _312
REMARK  128  A    between atoms: _315  and  _317
REMARK  129  A    between atoms: _317  and  _318
REMARK  130  A    between atoms: _317  and  _320
REMARK  131  A    between atoms: _320  and  _321
REMARK  132  A    between atoms: _324  and  _326
REMARK  133  A    between atoms: _326  and  _327
REMARK  134  A    between atoms: _326  and  _329
REMARK  135  A    between atoms: _329  and  _330
REMARK  136  A    between atoms: _333  and  _335
REMARK  137  A    between atoms: _335  and  _336
REMARK  138  A    between atoms: _335  and  _338
REMARK  139  A    between atoms: _341  and  _343
REMARK  140  A    between atoms: _343  and  _344
REMARK  141  A    between atoms: _343  and  _346
REMARK  142  A    between atoms: _346  and  _347
REMARK  143  A    between atoms: _350  and  _352
REMARK  144  A    between atoms: _352  and  _353
REMARK  145  A    between atoms: _352  and  _355
REMARK  146  A    between atoms: _355  and  _356
REMARK  147  A    between atoms: _356  and  _357
REMARK  148  A    between atoms: _357  and  _358
REMARK  149  A    between atoms: _358  and  _359
REMARK  150  A    between atoms: _363  and  _365
REMARK  151  A    between atoms: _365  and  _366
REMARK  152  A    between atoms: _365  and  _368
REMARK  153  A    between atoms: _368  and  _369
REMARK  154  A    between atoms: _369  and  _370
REMARK  155  A    between atoms: _372  and  _374
REMARK  156  A    between atoms: _374  and  _375
REMARK  157  A    between atoms: _374  and  _377
REMARK  158  A    between atoms: _377  and  _378
REMARK  159  A    between atoms: _381  and  _383
REMARK  160  A    between atoms: _383  and  _384
REMARK  161  A    between atoms: _386  and  _388
REMARK  162  A    between atoms: _388  and  _389
REMARK  163  A    between atoms: _391  and  _393
REMARK  164  A    between atoms: _393  and  _394
REMARK  165  A    between atoms: _393  and  _396
REMARK  166  A    between atoms: _396  and  _397
REMARK  167  A    between atoms: _400  and  _402
REMARK  168  A    between atoms: _402  and  _403
REMARK  169  A    between atoms: _405  and  _407
REMARK  170  A    between atoms: _407  and  _408
REMARK  171  A    between atoms: _410  and  _412
REMARK  172  A    between atoms: _412  and  _413
REMARK  173  A    between atoms: _412  and  _415
REMARK  174  A    between atoms: _415  and  _416
REMARK  175  A    between atoms: _422  and  _424
REMARK  176  A    between atoms: _424  and  _425
REMARK  177  A    between atoms: _424  and  _427
REMARK  178  A    between atoms: _427  and  _428
REMARK  179  A    between atoms: _431  and  _433
REMARK  180  A    between atoms: _433  and  _434
REMARK  181  A    between atoms: _433  and  _436
REMARK  182  A    between atoms: _439  and  _441
REMARK  183  A    between atoms: _441  and  _442
REMARK  184  A    between atoms: _441  and  _444
REMARK  185  A    between atoms: _444  and  _445
REMARK  186  A    between atoms: _448  and  _450
REMARK  187  A    between atoms: _450  and  _451
REMARK  188  A    between atoms: _450  and  _453
REMARK  189  A    between atoms: _453  and  _454
REMARK  190  A    between atoms: _458  and  _459
REMARK  191  A    between atoms: _464  and  _466
REMARK  192  A    between atoms: _466  and  _467
REMARK  193  A    between atoms: _466  and  _469
REMARK  194  A    between atoms: _472  and  _474
REMARK  195  A    between atoms: _474  and  _475
REMARK  196  A    between atoms: _474  and  _477
REMARK  197  A    between atoms: _477  and  _478
REMARK  198  A    between atoms: _483  and  _485
REMARK  199  A    between atoms: _485  and  _486
REMARK  200  A    between atoms: _485  and  _488
REMARK  201  A    between atoms: _488  and  _489
REMARK  202  A    between atoms: _492  and  _494
REMARK  203  A    between atoms: _494  and  _495
REMARK  204  A    between atoms: _494  and  _497
REMARK  205  A    between atoms: _497  and  _498
REMARK  206  A    between atoms: _501  and  _503
REMARK  207  A    between atoms: _503  and  _504
REMARK  208  A    between atoms: _506  and  _508
REMARK  209  A    between atoms: _508  and  _509
REMARK  210  A    between atoms: _508  and  _511
REMARK  211  A    between atoms: _511  and  _512
REMARK  212  A    between atoms: _512  and  _513
REMARK  213  A    between atoms: _513  and  _514
REMARK  214  A    between atoms: _523  and  _525
REMARK  215  A    between atoms: _525  and  _526
REMARK  216  A    between atoms: _525  and  _528
REMARK  217  A    between atoms: _528  and  _529
REMARK                            x       y       z     vdW  Elec       q    Type
REMARK                         _______ _______ _______ _____ _____    ______ ____
ROOT
ATOM      1  C   ALA A   6      16.416  32.156  21.151  0.00  0.00    +0.241 C 
ATOM      2  O   ALA A   6      15.933  31.461  22.056  0.00  0.00    -0.273 OA
ATOM      3  N   ASP A   7      16.427  33.484  21.206  0.00  0.00    -0.297 N 
ATOM      4  H   ASP A   7      16.823  34.029  20.414  0.00  0.00    +0.150 HD
ENDROOT
BRANCH   1   5
ATOM      5  CA  ALA A   6      16.989  31.495  19.900  0.00  0.00    +0.149 C 
ATOM      6  CB  ALA A   6      15.895  30.701  19.197  0.00  0.00    +0.031 C 
BRANCH   5   8
ATOM      7  C   GLY A   5      19.364  30.907  20.123  0.00  0.00    +0.243 C 
ATOM      8  N   ALA A   6      18.077  30.597  20.271  0.00  0.00    -0.297 N 
ATOM      9  H   ALA A   6      17.836  29.668  20.671  0.00  0.00    +0.150 HD
ATOM     10  O   GLY A   5      19.742  31.979  19.657  0.00  0.00    -0.273 OA
BRANCH   7  11
ATOM     11  CA  GLY A   5      20.385  29.868  20.579  0.00  0.00    +0.176 C 
BRANCH  11  14
ATOM     12  C   THR A   4      19.592  28.651  22.556  0.00  0.00    +0.243 C 
ATOM     13  O   THR A   4      19.820  29.611  23.311  0.00  0.00    -0.273 OA
ATOM     14  N   GLY A   5      19.854  28.678  21.246  0.00  0.00    -0.295 N 
ATOM     15  H   GLY A   5      19.674  27.824  20.681  0.00  0.00    +0.150 HD
BRANCH  12  16
ATOM     16  CA  THR A   4      18.982  27.366  23.115  0.00  0.00    +0.176 C 
BRANCH  16  18
ATOM     17  C   ASP A   3      17.300  26.904  21.399  0.00  0.00    +0.241 C 
ATOM     18  N   THR A   4      18.353  26.516  22.109  0.00  0.00    -0.295 N 
ATOM     19  H   THR A   4      18.746  25.568  21.941  0.00  0.00    +0.150 HD
ATOM     20  O   ASP A   3      16.747  28.006  21.562  0.00  0.00    -0.273 OA
BRANCH  17  21
ATOM     21  CA  ASP A   3      16.829  25.904  20.331  0.00  0.00    +0.160 C 
BRANCH  21  23
ATOM     22  C   LEU A   2      15.767  23.770  20.826  0.00  0.00    +0.241 C 
ATOM     23  N   ASP A   3      15.696  25.097  20.767  0.00  0.00    -0.297 N 
ATOM     24  H   ASP A   3      14.811  25.570  21.039  0.00  0.00    +0.150 HD
ATOM     25  O   LEU A   2      16.840  23.143  20.731  0.00  0.00    -0.273 OA
BRANCH  22  26
ATOM     26  CA  LEU A   2      14.436  23.036  20.990  0.00  0.00    +0.149 C 
BRANCH  26  28
ATOM     27  C   LEU A   1      13.628  23.209  18.711  0.00  0.00    +0.238 C 
ATOM     28  N   LEU A   2      14.106  22.456  19.692  0.00  0.00    -0.297 N 
ATOM     29  H   LEU A   2      14.248  21.438  19.534  0.00  0.00    +0.150 HD
ATOM     30  O   LEU A   1      13.222  24.348  18.883  0.00  0.00    -0.274 OA
BRANCH  27  31
ATOM     31  CA  LEU A   1      13.652  22.610  17.318  0.00  0.00    +0.145 C 
BRANCH  31  32
ATOM     32  N   LEU A   1      12.334  22.750  16.713  0.00  0.00    -0.238 NA
ATOM     33  H   LEU A   1      12.165  23.546  16.065  0.00  0.00    +0.142 HD
ENDBRANCH  31  32
BRANCH  31  34
ATOM     34  CB  LEU A   1      14.709  23.419  16.567  0.00  0.00    +0.026 C 
BRANCH  34  35
ATOM     35  CG  LEU A   1      15.397  23.028  15.281  0.00  0.00    +0.002 C 
ATOM     36  CD2 LEU A   1      16.230  21.761  15.472  0.00  0.00    +0.000 C 
ATOM     37  CD1 LEU A   1      16.244  24.236  14.856  0.00  0.00    +0.000 C 
ENDBRANCH  34  35
ENDBRANCH  31  34
ENDBRANCH  27  31
ENDBRANCH  26  28
BRANCH  26  38
ATOM     38  CB  LEU A   2      14.537  21.949  22.043  0.00  0.00    +0.029 C 
BRANCH  38  39
ATOM     39  CG  LEU A   2      13.303  21.058  22.173  0.00  0.00    +0.002 C 
ATOM     40  CD2 LEU A   2      13.581  19.992  23.199  0.00  0.00    +0.000 C 
ATOM     41  CD1 LEU A   2      12.066  21.890  22.524  0.00  0.00    +0.000 C 
ENDBRANCH  38  39
ENDBRANCH  26  38
ENDBRANCH  22  26
ENDBRANCH  21  23
BRANCH  21  42
ATOM     42  CB  ASP A   3      16.455  26.621  19.029  0.00  0.00    +0.143 C 
BRANCH  42  43
ATOM     43  CG  ASP A   3      17.640  27.286  18.369  0.00  0.00    +0.367 C 
ATOM     44  OD2 ASP A   3      18.757  27.230  18.943  0.00  0.00    -0.246 OA
ATOM     45  OD1 ASP A   3      17.467  27.823  17.258  0.00  0.00    -0.246 OA
ENDBRANCH  42  43
ENDBRANCH  21  42
ENDBRANCH  17  21
ENDBRANCH  16  18
BRANCH  16  46
ATOM     46  CB  THR A   4      20.054  26.583  23.893  0.00  0.00    +0.137 C 
ATOM     47  CG2 THR A   4      19.429  25.409  24.567  0.00  0.00    +0.034 C 
BRANCH  46  48
ATOM     48  OG1 THR A   4      21.103  26.141  23.017  0.00  0.00    -0.382 OA
ATOM     49  HG1 THR A   4      21.529  26.927  22.591  0.00  0.00    +0.210 HD
ENDBRANCH  46  48
ENDBRANCH  16  46
ENDBRANCH  12  16
ENDBRANCH  11  14
ENDBRANCH   7  11
ENDBRANCH   5   8
ENDBRANCH   1   5
BRANCH   3  50
ATOM     50  CA  ASP A   7      15.885  34.188  22.374  0.00  0.00    +0.160 C 
BRANCH  50  51
ATOM     51  C   ASP A   7      14.384  33.948  22.507  0.00  0.00    +0.241 C 
ATOM     52  O   ASP A   7      13.863  33.758  23.623  0.00  0.00    -0.273 OA
ATOM     53  N   ASP A   8      13.712  33.966  21.358  0.00  0.00    -0.297 N 
ATOM     54  H   ASP A   8      14.255  34.069  20.477  0.00  0.00    +0.150 HD
BRANCH  53  55
ATOM     55  CA  ASP A   8      12.268  33.851  21.260  0.00  0.00    +0.160 C 
BRANCH  55  56
ATOM     56  C   ASP A   8      11.820  32.813  20.238  0.00  0.00    +0.241 C 
ATOM     57  N   THR A   9      10.673  32.221  20.501  0.00  0.00    -0.295 N 
ATOM     58  H   THR A   9      10.151  32.508  21.353  0.00  0.00    +0.150 HD
ATOM     59  O   ASP A   8      12.488  32.543  19.258  0.00  0.00    -0.273 OA
BRANCH  57  60
ATOM     60  CA  THR A   9      10.105  31.188  19.657  0.00  0.00    +0.176 C 
BRANCH  60  61
ATOM     61  C   THR A   9       9.688  31.804  18.331  0.00  0.00    +0.243 C 
ATOM     62  O   THR A   9       9.068  32.864  18.306  0.00  0.00    -0.273 OA
ATOM     63  N   VAL A  10      10.050  31.156  17.231  0.00  0.00    -0.297 N 
ATOM     64  H   VAL A  10      10.666  30.322  17.309  0.00  0.00    +0.150 HD
BRANCH  63  65
ATOM     65  CA  VAL A  10       9.603  31.589  15.925  0.00  0.00    +0.149 C 
BRANCH  65  66
ATOM     66  C   VAL A  10       9.069  30.391  15.154  0.00  0.00    +0.241 C 
ATOM     67  O   VAL A  10       9.751  29.360  14.986  0.00  0.00    -0.273 OA
ATOM     68  N   LEU A  11       7.840  30.548  14.680  0.00  0.00    -0.298 N 
ATOM     69  H   LEU A  11       7.357  31.459  14.815  0.00  0.00    +0.150 HD
BRANCH  68  70
ATOM     70  CA  LEU A  11       7.156  29.482  13.980  0.00  0.00    +0.137 C 
BRANCH  70  71
ATOM     71  C   LEU A  11       6.952  29.847  12.516  0.00  0.00    +0.227 C 
ATOM     72  O   LEU A  11       6.860  31.020  12.154  0.00  0.00    -0.286 OA
ENDBRANCH  70  71
BRANCH  70  73
ATOM     73  CB  LEU A  11       5.805  29.198  14.642  0.00  0.00    +0.028 C 
BRANCH  73  74
ATOM     74  CG  LEU A  11       5.802  28.706  16.090  0.00  0.00    +0.002 C 
ATOM     75  CD2 LEU A  11       4.371  28.354  16.501  0.00  0.00    +0.000 C 
ATOM     76  CD1 LEU A  11       6.727  27.531  16.289  0.00  0.00    +0.000 C 
ENDBRANCH  73  74
ENDBRANCH  70  73
ENDBRANCH  68  70
ENDBRANCH  65  66
BRANCH  65  77
ATOM     77  CB  VAL A  10      10.701  32.345  15.151  0.00  0.00    +0.027 C 
ATOM     78  CG2 VAL A  10      11.939  31.490  14.978  0.00  0.00    +0.002 C 
ATOM     79  CG1 VAL A  10      10.169  32.876  13.805  0.00  0.00    +0.002 C 
ENDBRANCH  65  77
ENDBRANCH  63  65
ENDBRANCH  60  61
BRANCH  60  80
ATOM     80  CB  THR A   9       8.903  30.592  20.396  0.00  0.00    +0.137 C 
ATOM     81  CG2 THR A   9       8.105  29.630  19.543  0.00  0.00    +0.034 C 
BRANCH  80  82
ATOM     82  OG1 THR A   9       9.393  29.929  21.558  0.00  0.00    -0.382 OA
ATOM     83  HG1 THR A   9       9.863  30.582  22.135  0.00  0.00    +0.210 HD
ENDBRANCH  80  82
ENDBRANCH  60  80
ENDBRANCH  57  60
ENDBRANCH  55  56
BRANCH  55  84
ATOM     84  CB  ASP A   8      11.671  35.200  20.901  0.00  0.00    +0.143 C 
BRANCH  84  85
ATOM     85  CG  ASP A   8      11.708  36.166  22.061  0.00  0.00    +0.367 C 
ATOM     86  OD2 ASP A   8      11.087  35.869  23.106  0.00  0.00    -0.246 OA
ATOM     87  OD1 ASP A   8      12.368  37.208  21.923  0.00  0.00    -0.246 OA
ENDBRANCH  84  85
ENDBRANCH  55  84
ENDBRANCH  53  55
ENDBRANCH  50  51
BRANCH  50  88
ATOM     88  CB  ASP A   7      16.086  35.700  22.267  0.00  0.00    +0.143 C 
BRANCH  88  89
ATOM     89  CG  ASP A   7      17.543  36.115  22.247  0.00  0.00    +0.367 C 
ATOM     90  OD2 ASP A   7      18.415  35.357  22.694  0.00  0.00    -0.246 OA
ATOM     91  OD1 ASP A   7      17.803  37.245  21.797  0.00  0.00    -0.246 OA
ENDBRANCH  88  89
ENDBRANCH  50  88
ENDBRANCH   3  50
TORSDOF 39
REMARK  Name = ../refined-set-2016/3o99/3o99_pocket.pdb
REMARK  217 active torsions:
REMARK  status: ('A' for Active; 'I' for Inactive)
REMARK    1  A    between atoms: _1  and  _3
REMARK    2  A    between atoms: _3  and  _4
REMARK    3  A    between atoms: _3  and  _6
REMARK    4  A    between atoms: _6  and  _7
REMARK    5  A    between atoms: _7  and  _8
REMARK    6  A    between atoms: _8  and  _9
REMARK    7  A    between atoms: _18  and  _20
REMARK    8  A    between atoms: _20  and  _21
REMARK    9  A    between atoms: _20  and  _23
REMARK   10  A    between atoms: _23  and  _24
REMARK   11  A    between atoms: _27  and  _29
REMARK   12  A    between atoms: _29  and  _30
REMARK   13  A    between atoms: _29  and  _32
REMARK   14  A    between atoms: _32  and  _33
REMARK   15  A    between atoms: _36  and  _38
REMARK   16  A    between atoms: _38  and  _39
REMARK   17  A    between atoms: _38  and  _41
REMARK   18  A    between atoms: _41  and  _42
REMARK   19  A    between atoms: _45  and  _47
REMARK   20  A    between atoms: _47  and  _48
REMARK   21  A    between atoms: _47  and  _50
REMARK   22  A    between atoms: _50  and  _51
REMARK   23  A    between atoms: _54  and  _56
REMARK   24  A    between atoms: _56  and  _57
REMARK   25  A    between atoms: _59  and  _61
REMARK   26  A    between atoms: _61  and  _62
REMARK   27  A    between atoms: _65  and  _67
REMARK   28  A    between atoms: _67  and  _68
REMARK   29  A    between atoms: _67  and  _70
REMARK   30  A    between atoms: _70  and  _71
REMARK   31  A    between atoms: _74  and  _76
REMARK   32  A    between atoms: _76  and  _77
REMARK   33  A    between atoms: _76  and  _79
REMARK   34  A    between atoms: _79  and  _80
REMARK   35  A    between atoms: _83  and  _85
REMARK   36  A    between atoms: _85  and  _86
REMARK   37  A    between atoms: _85  and  _88
REMARK   38  A    between atoms: _88  and  _89
REMARK   39  A    between atoms: _92  and  _94
REMARK   40  A    between atoms: _94  and  _95
REMARK   41  A    between atoms: _94  and  _97
REMARK   42  A    between atoms: _100  and  _102
REMARK   43  A    between atoms: _102  and  _103
REMARK   44  A    between atoms: _102  and  _105
REMARK   45  A    between atoms: _105  and  _106
REMARK   46  A    between atoms: _109  and  _111
REMARK   47  A    between atoms: _111  and  _112
REMARK   48  A    between atoms: _114  and  _116
REMARK   49  A    between atoms: _116  and  _117
REMARK   50  A    between atoms: _119  and  _121
REMARK   51  A    between atoms: _121  and  _122
REMARK   52  A    between atoms: _121  and  _124
REMARK   53  A    between atoms: _124  and  _125
REMARK   54  A    between atoms: _128  and  _130
REMARK   55  A    between atoms: _130  and  _131
REMARK   56  A    between atoms: _133  and  _135
REMARK   57  A    between atoms: _135  and  _136
REMARK   58  A    between atoms: _138  and  _140
REMARK   59  A    between atoms: _140  and  _141
REMARK   60  A    between atoms: _140  and  _143
REMARK   61  A    between atoms: _143  and  _144
REMARK   62  A    between atoms: _147  and  _149
REMARK   63  A    between atoms: _149  and  _150
REMARK   64  A    between atoms: _149  and  _152
REMARK   65  A    between atoms: _152  and  _153
REMARK   66  A    between atoms: _156  and  _158
REMARK   67  A    between atoms: _158  and  _159
REMARK   68  A    between atoms: _158  and  _161
REMARK   69  A    between atoms: _161  and  _162
REMARK   70  A    between atoms: _166  and  _167
REMARK   71  A    between atoms: _172  and  _174
REMARK   72  A    between atoms: _174  and  _175
REMARK   73  A    between atoms: _174  and  _177
REMARK   74  A    between atoms: _180  and  _182
REMARK   75  A    between atoms: _182  and  _183
REMARK   76  A    between atoms: _182  and  _185
REMARK   77  A    between atoms: _185  and  _186
REMARK   78  A    between atoms: _191  and  _193
REMARK   79  A    between atoms: _193  and  _194
REMARK   80  A    between atoms: _193  and  _196
REMARK   81  A    between atoms: _196  and  _197
REMARK   82  A    between atoms: _200  and  _202
REMARK   83  A    between atoms: _202  and  _203
REMARK   84  A    between atoms: _202  and  _205
REMARK   85  A    between atoms: _205  and  _206
REMARK   86  A    between atoms: _209  and  _211
REMARK   87  A    between atoms: _211  and  _212
REMARK   88  A    between atoms: _214  and  _216
REMARK   89  A    between atoms: _216  and  _217
REMARK   90  A    between atoms: _216  and  _219
REMARK   91  A    between atoms: _219  and  _220
REMARK   92  A    between atoms: _220  and  _221
REMARK   93  A    between atoms: _221  and  _222
REMARK   94  A    between atoms: _231  and  _233
REMARK   95  A    between atoms: _233  and  _234
REMARK   96  A    between atoms: _233  and  _236
REMARK   97  A    between atoms: _236  and  _237
REMARK   98  A    between atoms: _242  and  _244
REMARK   99  A    between atoms: _244  and  _245
REMARK  100  A    between atoms: _244  and  _247
REMARK  101  A    between atoms: _247  and  _248
REMARK  102  A    between atoms: _248  and  _249
REMARK  103  A    between atoms: _249  and  _250
REMARK  104  A    between atoms: _259  and  _261
REMARK  105  A    between atoms: _261  and  _262
REMARK  106  A    between atoms: _261  and  _264
REMARK  107  A    between atoms: _264  and  _265
REMARK  108  A    between atoms: _268  and  _270
REMARK  109  A    between atoms: _270  and  _271
REMARK  110  A    between atoms: _270  and  _273
REMARK  111  A    between atoms: _273  and  _274
REMARK  112  A    between atoms: _277  and  _279
REMARK  113  A    between atoms: _279  and  _280
REMARK  114  A    between atoms: _279  and  _282
REMARK  115  A    between atoms: _282  and  _283
REMARK  116  A    between atoms: _286  and  _288
REMARK  117  A    between atoms: _288  and  _289
REMARK  118  A    between atoms: _288  and  _291
REMARK  119  A    between atoms: _291  and  _292
REMARK  120  A    between atoms: _295  and  _297
REMARK  121  A    between atoms: _297  and  _298
REMARK  122  A    between atoms: _300  and  _302
REMARK  123  A    between atoms: _302  and  _303
REMARK  124  A    between atoms: _306  and  _308
REMARK  125  A    between atoms: _308  and  _309
REMARK  126  A    between atoms: _308  and  _311
REMARK  127  A    between atoms: _311  and  _312
REMARK  128  A    between atoms: _315  and  _317
REMARK  129  A    between atoms: _317  and  _318
REMARK  130  A    between atoms: _317  and  _320
REMARK  131  A    between atoms: _320  and  _321
REMARK  132  A    between atoms: _324  and  _326
REMARK  133  A    between atoms: _326  and  _327
REMARK  134  A    between atoms: _326  and  _329
REMARK  135  A    between atoms: _329  and  _330
REMARK  136  A    between atoms: _333  and  _335
REMARK  137  A    between atoms: _335  and  _336
REMARK  138  A    between atoms: _335  and  _338
REMARK  139  A    between atoms: _341  and  _343
REMARK  140  A    between atoms: _343  and  _344
REMARK  141  A    between atoms: _343  and  _346
REMARK  142  A    between atoms: _346  and  _347
REMARK  143  A    between atoms: _350  and  _352
REMARK  144  A    between atoms: _352  and  _353
REMARK  145  A    between atoms: _352  and  _355
REMARK  146  A    between atoms: _355  and  _356
REMARK  147  A    between atoms: _356  and  _357
REMARK  148  A    between atoms: _357  and  _358
REMARK  149  A    between atoms: _358  and  _359
REMARK  150  A    between atoms: _363  and  _365
REMARK  151  A    between atoms: _365  and  _366
REMARK  152  A    between atoms: _365  and  _368
REMARK  153  A    between atoms: _368  and  _369
REMARK  154  A    between atoms: _369  and  _370
REMARK  155  A    between atoms: _372  and  _374
REMARK  156  A    between atoms: _374  and  _375
REMARK  157  A    between atoms: _374  and  _377
REMARK  158  A    between atoms: _377  and  _378
REMARK  159  A    between atoms: _381  and  _383
REMARK  160  A    between atoms: _383  and  _384
REMARK  161  A    between atoms: _386  and  _388
REMARK  162  A    between atoms: _388  and  _389
REMARK  163  A    between atoms: _391  and  _393
REMARK  164  A    between atoms: _393  and  _394
REMARK  165  A    between atoms: _393  and  _396
REMARK  166  A    between atoms: _396  and  _397
REMARK  167  A    between atoms: _400  and  _402
REMARK  168  A    between atoms: _402  and  _403
REMARK  169  A    between atoms: _405  and  _407
REMARK  170  A    between atoms: _407  and  _408
REMARK  171  A    between atoms: _410  and  _412
REMARK  172  A    between atoms: _412  and  _413
REMARK  173  A    between atoms: _412  and  _415
REMARK  174  A    between atoms: _415  and  _416
REMARK  175  A    between atoms: _422  and  _424
REMARK  176  A    between atoms: _424  and  _425
REMARK  177  A    between atoms: _424  and  _427
REMARK  178  A    between atoms: _427  and  _428
REMARK  179  A    between atoms: _431  and  _433
REMARK  180  A    between atoms: _433  and  _434
REMARK  181  A    between atoms: _433  and  _436
REMARK  182  A    between atoms: _439  and  _441
REMARK  183  A    between atoms: _441  and  _442
REMARK  184  A    between atoms: _441  and  _444
REMARK  185  A    between atoms: _444  and  _445
REMARK  186  A    between atoms: _448  and  _450
REMARK  187  A    between atoms: _450  and  _451
REMARK  188  A    between atoms: _450  and  _453
REMARK  189  A    between atoms: _453  and  _454
REMARK  190  A    between atoms: _458  and  _459
REMARK  191  A    between atoms: _464  and  _466
REMARK  192  A    between atoms: _466  and  _467
REMARK  193  A    between atoms: _466  and  _469
REMARK  194  A    between atoms: _472  and  _474
REMARK  195  A    between atoms: _474  and  _475
REMARK  196  A    between atoms: _474  and  _477
REMARK  197  A    between atoms: _477  and  _478
REMARK  198  A    between atoms: _483  and  _485
REMARK  199  A    between atoms: _485  and  _486
REMARK  200  A    between atoms: _485  and  _488
REMARK  201  A    between atoms: _488  and  _489
REMARK  202  A    between atoms: _492  and  _494
REMARK  203  A    between atoms: _494  and  _495
REMARK  204  A    between atoms: _494  and  _497
REMARK  205  A    between atoms: _497  and  _498
REMARK  206  A    between atoms: _501  and  _503
REMARK  207  A    between atoms: _503  and  _504
REMARK  208  A    between atoms: _506  and  _508
REMARK  209  A    between atoms: _508  and  _509
REMARK  210  A    between atoms: _508  and  _511
REMARK  211  A    between atoms: _511  and  _512
REMARK  212  A    between atoms: _512  and  _513
REMARK  213  A    between atoms: _513  and  _514
REMARK  214  A    between atoms: _523  and  _525
REMARK  215  A    between atoms: _525  and  _526
REMARK  216  A    between atoms: _525  and  _528
REMARK  217  A    between atoms: _528  and  _529
REMARK                            x       y       z     vdW  Elec       q    Type
REMARK                         _______ _______ _______ _____ _____    ______ ____
ROOT
ATOM      1  C   GLY A   5      21.533  35.418  11.244  0.00  0.00    +0.243 C 
ATOM      2  N   ILE A   6      22.072  34.225  11.046  0.00  0.00    -0.297 N 
ATOM      3  H   ILE A   6      21.868  33.453  11.713  0.00  0.00    +0.150 HD
ATOM      4  O   GLY A   5      21.790  36.389  10.536  0.00  0.00    -0.273 OA
ENDROOT
BRANCH   2   5
ATOM      5  CA  ILE A   6      22.951  33.977   9.901  0.00  0.00    +0.149 C 
BRANCH   5   6
ATOM      6  C   ILE A   6      22.192  34.253   8.607  0.00  0.00    +0.241 C 
ATOM      7  O   ILE A   6      21.084  33.768   8.431  0.00  0.00    -0.273 OA
ATOM      8  N   GLY A   7      22.775  35.079   7.738  0.00  0.00    -0.295 N 
ATOM      9  H   GLY A   7      23.725  35.443   7.953  0.00  0.00    +0.150 HD
BRANCH   8  10
ATOM     10  CA  GLY A   7      22.131  35.488   6.503  0.00  0.00    +0.176 C 
BRANCH  10  11
ATOM     11  C   GLY A   7      21.444  36.840   6.558  0.00  0.00    +0.243 C 
ATOM     12  N   GLY A   8      21.118  37.337   7.745  0.00  0.00    -0.295 N 
ATOM     13  H   GLY A   8      21.362  36.801   8.602  0.00  0.00    +0.150 HD
ATOM     14  O   GLY A   7      21.229  37.438   5.522  0.00  0.00    -0.273 OA
BRANCH  12  15
ATOM     15  CA  GLY A   8      20.428  38.613   7.880  0.00  0.00    +0.176 C 
BRANCH  15  16
ATOM     16  C   GLY A   8      19.157  38.511   8.694  0.00  0.00    +0.243 C 
ATOM     17  O   GLY A   8      19.036  37.670   9.590  0.00  0.00    -0.273 OA
ATOM     18  N   PHE A   9      18.187  39.359   8.358  0.00  0.00    -0.297 N 
ATOM     19  H   PHE A   9      18.294  39.939   7.502  0.00  0.00    +0.150 HD
BRANCH  18  20
ATOM     20  CA  PHE A   9      16.981  39.493   9.160  0.00  0.00    +0.153 C 
BRANCH  20  21
ATOM     21  C   PHE A   9      15.771  38.970   8.395  0.00  0.00    +0.241 C 
ATOM     22  N   ILE A  10      14.772  38.479   9.121  0.00  0.00    -0.298 N 
ATOM     23  H   ILE A  10      14.938  38.227  10.116  0.00  0.00    +0.150 HD
ATOM     24  O   PHE A   9      15.744  39.020   7.162  0.00  0.00    -0.273 OA
BRANCH  22  25
ATOM     25  CA  ILE A  10      13.436  38.286   8.540  0.00  0.00    +0.137 C 
BRANCH  25  26
ATOM     26  C   ILE A  10      12.408  39.075   9.332  0.00  0.00    +0.227 C 
ATOM     27  O   ILE A  10      12.602  39.385  10.504  0.00  0.00    -0.286 OA
ENDBRANCH  25  26
BRANCH  25  28
ATOM     28  CB  ILE A  10      13.000  36.804   8.448  0.00  0.00    +0.026 C 
ATOM     29  CG2 ILE A  10      13.939  36.056   7.547  0.00  0.00    +0.002 C 
BRANCH  28  30
ATOM     30  CG1 ILE A  10      12.911  36.147   9.831  0.00  0.00    +0.002 C 
ATOM     31  CD1 ILE A  10      12.403  34.718   9.755  0.00  0.00    +0.000 C 
ENDBRANCH  28  30
ENDBRANCH  25  28
ENDBRANCH  22  25
ENDBRANCH  20  21
BRANCH  20  32
ATOM     32  CB  PHE A   9      16.768  40.964   9.520  0.00  0.00    +0.055 C 
BRANCH  32  33
ATOM     33  CG  PHE A   9      17.632  41.449  10.661  0.00  0.00    -0.020 A 
ATOM     34  CD2 PHE A   9      17.098  41.639  11.923  0.00  0.00    -0.004 A 
ATOM     35  CE2 PHE A   9      17.896  42.093  12.969  0.00  0.00    -0.000 A 
ATOM     36  CZ  PHE A   9      19.232  42.363  12.757  0.00  0.00    -0.000 A 
ATOM     37  CE1 PHE A   9      19.771  42.180  11.502  0.00  0.00    -0.000 A 
ATOM     38  CD1 PHE A   9      18.971  41.731  10.461  0.00  0.00    -0.004 A 
ENDBRANCH  32  33
ENDBRANCH  20  32
ENDBRANCH  18  20
ENDBRANCH  15  16
ENDBRANCH  12  15
ENDBRANCH  10  11
ENDBRANCH   8  10
ENDBRANCH   5   6
BRANCH   5  39
ATOM     39  CB  ILE A   6      23.522  32.543   9.936  0.00  0.00    +0.027 C 
ATOM     40  CG2 ILE A   6      24.040  32.134   8.564  0.00  0.00    +0.002 C 
BRANCH  39  41
ATOM     41  CG1 ILE A   6      24.636  32.475  10.990  0.00  0.00    +0.002 C 
ATOM     42  CD1 ILE A   6      25.014  31.075  11.463  0.00  0.00    +0.000 C 
ENDBRANCH  39  41
ENDBRANCH   5  39
ENDBRANCH   2   5
BRANCH   1  43
ATOM     43  CA  GLY A   5      20.541  35.517  12.390  0.00  0.00    +0.176 C 
BRANCH  43  46
ATOM     44  C   GLY A   4      19.107  37.303  13.224  0.00  0.00    +0.243 C 
ATOM     45  O   GLY A   4      19.170  36.919  14.384  0.00  0.00    -0.273 OA
ATOM     46  N   GLY A   5      19.667  36.670  12.210  0.00  0.00    -0.295 N 
ATOM     47  H   GLY A   5      19.477  37.007  11.245  0.00  0.00    +0.150 HD
BRANCH  44  48
ATOM     48  CA  GLY A   4      18.379  38.577  12.853  0.00  0.00    +0.176 C 
BRANCH  48  50
ATOM     49  C   ILE A   3      15.985  38.812  13.098  0.00  0.00    +0.241 C 
ATOM     50  N   GLY A   4      17.192  38.814  13.651  0.00  0.00    -0.295 N 
ATOM     51  H   GLY A   4      17.287  38.988  14.672  0.00  0.00    +0.150 HD
ATOM     52  O   ILE A   3      15.781  38.553  11.912  0.00  0.00    -0.273 OA
BRANCH  49  53
ATOM     53  CA  ILE A   3      14.843  39.178  14.019  0.00  0.00    +0.149 C 
BRANCH  53  56
ATOM     54  C   MET A   2      13.574  41.205  13.589  0.00  0.00    +0.241 C 
ATOM     55  O   MET A   2      14.013  41.750  14.602  0.00  0.00    -0.273 OA
ATOM     56  N   ILE A   3      13.876  39.957  13.244  0.00  0.00    -0.297 N 
ATOM     57  H   ILE A   3      13.420  39.529  12.413  0.00  0.00    +0.150 HD
BRANCH  54  58
ATOM     58  CA  MET A   2      12.615  41.954  12.684  0.00  0.00    +0.149 C 
BRANCH  58  60
ATOM     59  C   LYS A   1      10.302  42.276  13.356  0.00  0.00    +0.238 C 
ATOM     60  N   MET A   2      11.587  42.564  13.516  0.00  0.00    -0.297 N 
ATOM     61  H   MET A   2      11.867  43.242  14.253  0.00  0.00    +0.150 HD
ATOM     62  O   LYS A   1       9.885  41.581  12.434  0.00  0.00    -0.274 OA
BRANCH  59  63
ATOM     63  CA  LYS A   1       9.343  42.856  14.400  0.00  0.00    +0.145 C 
BRANCH  63  64
ATOM     64  N   LYS A   1       8.007  42.879  13.841  0.00  0.00    -0.238 NA
ATOM     65  H   LYS A   1       7.761  42.200  13.093  0.00  0.00    +0.142 HD
ENDBRANCH  63  64
BRANCH  63  66
ATOM     66  CB  LYS A   1       9.319  41.988  15.653  0.00  0.00    +0.026 C 
BRANCH  66  67
ATOM     67  CG  LYS A   1      10.594  41.923  16.484  0.00  0.00    -0.000 C 
BRANCH  67  68
ATOM     68  CD  LYS A   1      10.332  41.012  17.677  0.00  0.00    -0.024 C 
BRANCH  68  69
ATOM     69  CE  LYS A   1      11.605  40.489  18.292  0.00  0.00    -0.086 C 
BRANCH  69  70
ATOM     70  NZ  LYS A   1      12.129  41.451  19.275  0.00  0.00    +0.380 N 
ATOM     71  HZ1 LYS A   1      11.424  41.597  20.025  0.00  0.00    -0.089 HD
ATOM     72  HZ2 LYS A   1      13.006  41.077  19.690  0.00  0.00    -0.089 HD
ATOM     73  HZ3 LYS A   1      12.326  42.356  18.802  0.00  0.00    -0.089 HD
ENDBRANCH  69  70
ENDBRANCH  68  69
ENDBRANCH  67  68
ENDBRANCH  66  67
ENDBRANCH  63  66
ENDBRANCH  59  63
ENDBRANCH  58  60
BRANCH  58  74
ATOM     74  CB  MET A   2      13.355  43.030  11.897  0.00  0.00    +0.041 C 
BRANCH  74  75
ATOM     75  CG  MET A   2      12.582  43.501  10.692  0.00  0.00    +0.060 C 
BRANCH  75  76
ATOM     76  SD  MET A   2      13.055  42.605   9.210  0.00  0.00    -0.139 S 
ATOM     77  CE  MET A   2      14.502  43.543   8.730  0.00  0.00    +0.069 C 
ENDBRANCH  75  76
ENDBRANCH  74  75
ENDBRANCH  58  74
ENDBRANCH  54  58
ENDBRANCH  53  56
BRANCH  53  78
ATOM     78  CB  ILE A   3      14.225  37.941  14.718  0.00  0.00    +0.027 C 
ATOM     79  CG2 ILE A   3      13.169  38.400  15.725  0.00  0.00    +0.002 C 
BRANCH  78  80
ATOM     80  CG1 ILE A   3      13.636  36.944  13.704  0.00  0.00    +0.002 C 
ATOM     81  CD1 ILE A   3      12.978  35.713  14.347  0.00  0.00    +0.000 C 
ENDBRANCH  78  80
ENDBRANCH  53  78
ENDBRANCH  49  53
ENDBRANCH  48  50
ENDBRANCH  44  48
ENDBRANCH  43  46
ENDBRANCH   1  43
TORSDOF 36
REMARK  Name = ../refined-set-2016/3o99/3o99_pocket.pdb
REMARK  217 active torsions:
REMARK  status: ('A' for Active; 'I' for Inactive)
REMARK    1  A    between atoms: _1  and  _3
REMARK    2  A    between atoms: _3  and  _4
REMARK    3  A    between atoms: _3  and  _6
REMARK    4  A    between atoms: _6  and  _7
REMARK    5  A    between atoms: _7  and  _8
REMARK    6  A    between atoms: _8  and  _9
REMARK    7  A    between atoms: _18  and  _20
REMARK    8  A    between atoms: _20  and  _21
REMARK    9  A    between atoms: _20  and  _23
REMARK   10  A    between atoms: _23  and  _24
REMARK   11  A    between atoms: _27  and  _29
REMARK   12  A    between atoms: _29  and  _30
REMARK   13  A    between atoms: _29  and  _32
REMARK   14  A    between atoms: _32  and  _33
REMARK   15  A    between atoms: _36  and  _38
REMARK   16  A    between atoms: _38  and  _39
REMARK   17  A    between atoms: _38  and  _41
REMARK   18  A    between atoms: _41  and  _42
REMARK   19  A    between atoms: _45  and  _47
REMARK   20  A    between atoms: _47  and  _48
REMARK   21  A    between atoms: _47  and  _50
REMARK   22  A    between atoms: _50  and  _51
REMARK   23  A    between atoms: _54  and  _56
REMARK   24  A    between atoms: _56  and  _57
REMARK   25  A    between atoms: _59  and  _61
REMARK   26  A    between atoms: _61  and  _62
REMARK   27  A    between atoms: _65  and  _67
REMARK   28  A    between atoms: _67  and  _68
REMARK   29  A    between atoms: _67  and  _70
REMARK   30  A    between atoms: _70  and  _71
REMARK   31  A    between atoms: _74  and  _76
REMARK   32  A    between atoms: _76  and  _77
REMARK   33  A    between atoms: _76  and  _79
REMARK   34  A    between atoms: _79  and  _80
REMARK   35  A    between atoms: _83  and  _85
REMARK   36  A    between atoms: _85  and  _86
REMARK   37  A    between atoms: _85  and  _88
REMARK   38  A    between atoms: _88  and  _89
REMARK   39  A    between atoms: _92  and  _94
REMARK   40  A    between atoms: _94  and  _95
REMARK   41  A    between atoms: _94  and  _97
REMARK   42  A    between atoms: _100  and  _102
REMARK   43  A    between atoms: _102  and  _103
REMARK   44  A    between atoms: _102  and  _105
REMARK   45  A    between atoms: _105  and  _106
REMARK   46  A    between atoms: _109  and  _111
REMARK   47  A    between atoms: _111  and  _112
REMARK   48  A    between atoms: _114  and  _116
REMARK   49  A    between atoms: _116  and  _117
REMARK   50  A    between atoms: _119  and  _121
REMARK   51  A    between atoms: _121  and  _122
REMARK   52  A    between atoms: _121  and  _124
REMARK   53  A    between atoms: _124  and  _125
REMARK   54  A    between atoms: _128  and  _130
REMARK   55  A    between atoms: _130  and  _131
REMARK   56  A    between atoms: _133  and  _135
REMARK   57  A    between atoms: _135  and  _136
REMARK   58  A    between atoms: _138  and  _140
REMARK   59  A    between atoms: _140  and  _141
REMARK   60  A    between atoms: _140  and  _143
REMARK   61  A    between atoms: _143  and  _144
REMARK   62  A    between atoms: _147  and  _149
REMARK   63  A    between atoms: _149  and  _150
REMARK   64  A    between atoms: _149  and  _152
REMARK   65  A    between atoms: _152  and  _153
REMARK   66  A    between atoms: _156  and  _158
REMARK   67  A    between atoms: _158  and  _159
REMARK   68  A    between atoms: _158  and  _161
REMARK   69  A    between atoms: _161  and  _162
REMARK   70  A    between atoms: _166  and  _167
REMARK   71  A    between atoms: _172  and  _174
REMARK   72  A    between atoms: _174  and  _175
REMARK   73  A    between atoms: _174  and  _177
REMARK   74  A    between atoms: _180  and  _182
REMARK   75  A    between atoms: _182  and  _183
REMARK   76  A    between atoms: _182  and  _185
REMARK   77  A    between atoms: _185  and  _186
REMARK   78  A    between atoms: _191  and  _193
REMARK   79  A    between atoms: _193  and  _194
REMARK   80  A    between atoms: _193  and  _196
REMARK   81  A    between atoms: _196  and  _197
REMARK   82  A    between atoms: _200  and  _202
REMARK   83  A    between atoms: _202  and  _203
REMARK   84  A    between atoms: _202  and  _205
REMARK   85  A    between atoms: _205  and  _206
REMARK   86  A    between atoms: _209  and  _211
REMARK   87  A    between atoms: _211  and  _212
REMARK   88  A    between atoms: _214  and  _216
REMARK   89  A    between atoms: _216  and  _217
REMARK   90  A    between atoms: _216  and  _219
REMARK   91  A    between atoms: _219  and  _220
REMARK   92  A    between atoms: _220  and  _221
REMARK   93  A    between atoms: _221  and  _222
REMARK   94  A    between atoms: _231  and  _233
REMARK   95  A    between atoms: _233  and  _234
REMARK   96  A    between atoms: _233  and  _236
REMARK   97  A    between atoms: _236  and  _237
REMARK   98  A    between atoms: _242  and  _244
REMARK   99  A    between atoms: _244  and  _245
REMARK  100  A    between atoms: _244  and  _247
REMARK  101  A    between atoms: _247  and  _248
REMARK  102  A    between atoms: _248  and  _249
REMARK  103  A    between atoms: _249  and  _250
REMARK  104  A    between atoms: _259  and  _261
REMARK  105  A    between atoms: _261  and  _262
REMARK  106  A    between atoms: _261  and  _264
REMARK  107  A    between atoms: _264  and  _265
REMARK  108  A    between atoms: _268  and  _270
REMARK  109  A    between atoms: _270  and  _271
REMARK  110  A    between atoms: _270  and  _273
REMARK  111  A    between atoms: _273  and  _274
REMARK  112  A    between atoms: _277  and  _279
REMARK  113  A    between atoms: _279  and  _280
REMARK  114  A    between atoms: _279  and  _282
REMARK  115  A    between atoms: _282  and  _283
REMARK  116  A    between atoms: _286  and  _288
REMARK  117  A    between atoms: _288  and  _289
REMARK  118  A    between atoms: _288  and  _291
REMARK  119  A    between atoms: _291  and  _292
REMARK  120  A    between atoms: _295  and  _297
REMARK  121  A    between atoms: _297  and  _298
REMARK  122  A    between atoms: _300  and  _302
REMARK  123  A    between atoms: _302  and  _303
REMARK  124  A    between atoms: _306  and  _308
REMARK  125  A    between atoms: _308  and  _309
REMARK  126  A    between atoms: _308  and  _311
REMARK  127  A    between atoms: _311  and  _312
REMARK  128  A    between atoms: _315  and  _317
REMARK  129  A    between atoms: _317  and  _318
REMARK  130  A    between atoms: _317  and  _320
REMARK  131  A    between atoms: _320  and  _321
REMARK  132  A    between atoms: _324  and  _326
REMARK  133  A    between atoms: _326  and  _327
REMARK  134  A    between atoms: _326  and  _329
REMARK  135  A    between atoms: _329  and  _330
REMARK  136  A    between atoms: _333  and  _335
REMARK  137  A    between atoms: _335  and  _336
REMARK  138  A    between atoms: _335  and  _338
REMARK  139  A    between atoms: _341  and  _343
REMARK  140  A    between atoms: _343  and  _344
REMARK  141  A    between atoms: _343  and  _346
REMARK  142  A    between atoms: _346  and  _347
REMARK  143  A    between atoms: _350  and  _352
REMARK  144  A    between atoms: _352  and  _353
REMARK  145  A    between atoms: _352  and  _355
REMARK  146  A    between atoms: _355  and  _356
REMARK  147  A    between atoms: _356  and  _357
REMARK  148  A    between atoms: _357  and  _358
REMARK  149  A    between atoms: _358  and  _359
REMARK  150  A    between atoms: _363  and  _365
REMARK  151  A    between atoms: _365  and  _366
REMARK  152  A    between atoms: _365  and  _368
REMARK  153  A    between atoms: _368  and  _369
REMARK  154  A    between atoms: _369  and  _370
REMARK  155  A    between atoms: _372  and  _374
REMARK  156  A    between atoms: _374  and  _375
REMARK  157  A    between atoms: _374  and  _377
REMARK  158  A    between atoms: _377  and  _378
REMARK  159  A    between atoms: _381  and  _383
REMARK  160  A    between atoms: _383  and  _384
REMARK  161  A    between atoms: _386  and  _388
REMARK  162  A    between atoms: _388  and  _389
REMARK  163  A    between atoms: _391  and  _393
REMARK  164  A    between atoms: _393  and  _394
REMARK  165  A    between atoms: _393  and  _396
REMARK  166  A    between atoms: _396  and  _397
REMARK  167  A    between atoms: _400  and  _402
REMARK  168  A    between atoms: _402  and  _403
REMARK  169  A    between atoms: _405  and  _407
REMARK  170  A    between atoms: _407  and  _408
REMARK  171  A    between atoms: _410  and  _412
REMARK  172  A    between atoms: _412  and  _413
REMARK  173  A    between atoms: _412  and  _415
REMARK  174  A    between atoms: _415  and  _416
REMARK  175  A    between atoms: _422  and  _424
REMARK  176  A    between atoms: _424  and  _425
REMARK  177  A    between atoms: _424  and  _427
REMARK  178  A    between atoms: _427  and  _428
REMARK  179  A    between atoms: _431  and  _433
REMARK  180  A    between atoms: _433  and  _434
REMARK  181  A    between atoms: _433  and  _436
REMARK  182  A    between atoms: _439  and  _441
REMARK  183  A    between atoms: _441  and  _442
REMARK  184  A    between atoms: _441  and  _444
REMARK  185  A    between atoms: _444  and  _445
REMARK  186  A    between atoms: _448  and  _450
REMARK  187  A    between atoms: _450  and  _451
REMARK  188  A    between atoms: _450  and  _453
REMARK  189  A    between atoms: _453  and  _454
REMARK  190  A    between atoms: _458  and  _459
REMARK  191  A    between atoms: _464  and  _466
REMARK  192  A    between atoms: _466  and  _467
REMARK  193  A    between atoms: _466  and  _469
REMARK  194  A    between atoms: _472  and  _474
REMARK  195  A    between atoms: _474  and  _475
REMARK  196  A    between atoms: _474  and  _477
REMARK  197  A    between atoms: _477  and  _478
REMARK  198  A    between atoms: _483  and  _485
REMARK  199  A    between atoms: _485  and  _486
REMARK  200  A    between atoms: _485  and  _488
REMARK  201  A    between atoms: _488  and  _489
REMARK  202  A    between atoms: _492  and  _494
REMARK  203  A    between atoms: _494  and  _495
REMARK  204  A    between atoms: _494  and  _497
REMARK  205  A    between atoms: _497  and  _498
REMARK  206  A    between atoms: _501  and  _503
REMARK  207  A    between atoms: _503  and  _504
REMARK  208  A    between atoms: _506  and  _508
REMARK  209  A    between atoms: _508  and  _509
REMARK  210  A    between atoms: _508  and  _511
REMARK  211  A    between atoms: _511  and  _512
REMARK  212  A    between atoms: _512  and  _513
REMARK  213  A    between atoms: _513  and  _514
REMARK  214  A    between atoms: _523  and  _525
REMARK  215  A    between atoms: _525  and  _526
REMARK  216  A    between atoms: _525  and  _528
REMARK  217  A    between atoms: _528  and  _529
REMARK                            x       y       z     vdW  Elec       q    Type
REMARK                         _______ _______ _______ _____ _____    ______ ____
ROOT
ATOM      1  CA  VAL A   1       7.885  38.395  11.804  0.00  0.00    +0.133 C 
ENDROOT
BRANCH   1   2
ATOM      2  CB  VAL A   1       8.642  37.558  12.855  0.00  0.00    +0.023 C 
ATOM      3  CG2 VAL A   1       9.265  38.438  13.956  0.00  0.00    +0.002 C 
ATOM      4  CG1 VAL A   1       9.721  36.736  12.187  0.00  0.00    +0.002 C 
ENDBRANCH   1   2
BRANCH   1   5
ATOM      5  N   VAL A   1       8.808  39.294  11.107  0.00  0.00    -0.239 NA
ATOM      6  H   VAL A   1       9.138  40.147  11.603  0.00  0.00    +0.142 HD
ENDBRANCH   1   5
BRANCH   1   7
ATOM      7  C   VAL A   1       6.716  39.144  12.462  0.00  0.00    +0.224 C 
ATOM      8  O   VAL A   1       6.749  40.372  12.624  0.00  0.00    -0.287 OA
ENDBRANCH   1   7
TORSDOF 3
REMARK  Name = ../refined-set-2016/3o99/3o99_pocket.pdb
REMARK  217 active torsions:
REMARK  status: ('A' for Active; 'I' for Inactive)
REMARK    1  A    between atoms: _1  and  _3
REMARK    2  A    between atoms: _3  and  _4
REMARK    3  A    between atoms: _3  and  _6
REMARK    4  A    between atoms: _6  and  _7
REMARK    5  A    between atoms: _7  and  _8
REMARK    6  A    between atoms: _8  and  _9
REMARK    7  A    between atoms: _18  and  _20
REMARK    8  A    between atoms: _20  and  _21
REMARK    9  A    between atoms: _20  and  _23
REMARK   10  A    between atoms: _23  and  _24
REMARK   11  A    between atoms: _27  and  _29
REMARK   12  A    between atoms: _29  and  _30
REMARK   13  A    between atoms: _29  and  _32
REMARK   14  A    between atoms: _32  and  _33
REMARK   15  A    between atoms: _36  and  _38
REMARK   16  A    between atoms: _38  and  _39
REMARK   17  A    between atoms: _38  and  _41
REMARK   18  A    between atoms: _41  and  _42
REMARK   19  A    between atoms: _45  and  _47
REMARK   20  A    between atoms: _47  and  _48
REMARK   21  A    between atoms: _47  and  _50
REMARK   22  A    between atoms: _50  and  _51
REMARK   23  A    between atoms: _54  and  _56
REMARK   24  A    between atoms: _56  and  _57
REMARK   25  A    between atoms: _59  and  _61
REMARK   26  A    between atoms: _61  and  _62
REMARK   27  A    between atoms: _65  and  _67
REMARK   28  A    between atoms: _67  and  _68
REMARK   29  A    between atoms: _67  and  _70
REMARK   30  A    between atoms: _70  and  _71
REMARK   31  A    between atoms: _74  and  _76
REMARK   32  A    between atoms: _76  and  _77
REMARK   33  A    between atoms: _76  and  _79
REMARK   34  A    between atoms: _79  and  _80
REMARK   35  A    between atoms: _83  and  _85
REMARK   36  A    between atoms: _85  and  _86
REMARK   37  A    between atoms: _85  and  _88
REMARK   38  A    between atoms: _88  and  _89
REMARK   39  A    between atoms: _92  and  _94
REMARK   40  A    between atoms: _94  and  _95
REMARK   41  A    between atoms: _94  and  _97
REMARK   42  A    between atoms: _100  and  _102
REMARK   43  A    between atoms: _102  and  _103
REMARK   44  A    between atoms: _102  and  _105
REMARK   45  A    between atoms: _105  and  _106
REMARK   46  A    between atoms: _109  and  _111
REMARK   47  A    between atoms: _111  and  _112
REMARK   48  A    between atoms: _114  and  _116
REMARK   49  A    between atoms: _116  and  _117
REMARK   50  A    between atoms: _119  and  _121
REMARK   51  A    between atoms: _121  and  _122
REMARK   52  A    between atoms: _121  and  _124
REMARK   53  A    between atoms: _124  and  _125
REMARK   54  A    between atoms: _128  and  _130
REMARK   55  A    between atoms: _130  and  _131
REMARK   56  A    between atoms: _133  and  _135
REMARK   57  A    between atoms: _135  and  _136
REMARK   58  A    between atoms: _138  and  _140
REMARK   59  A    between atoms: _140  and  _141
REMARK   60  A    between atoms: _140  and  _143
REMARK   61  A    between atoms: _143  and  _144
REMARK   62  A    between atoms: _147  and  _149
REMARK   63  A    between atoms: _149  and  _150
REMARK   64  A    between atoms: _149  and  _152
REMARK   65  A    between atoms: _152  and  _153
REMARK   66  A    between atoms: _156  and  _158
REMARK   67  A    between atoms: _158  and  _159
REMARK   68  A    between atoms: _158  and  _161
REMARK   69  A    between atoms: _161  and  _162
REMARK   70  A    between atoms: _166  and  _167
REMARK   71  A    between atoms: _172  and  _174
REMARK   72  A    between atoms: _174  and  _175
REMARK   73  A    between atoms: _174  and  _177
REMARK   74  A    between atoms: _180  and  _182
REMARK   75  A    between atoms: _182  and  _183
REMARK   76  A    between atoms: _182  and  _185
REMARK   77  A    between atoms: _185  and  _186
REMARK   78  A    between atoms: _191  and  _193
REMARK   79  A    between atoms: _193  and  _194
REMARK   80  A    between atoms: _193  and  _196
REMARK   81  A    between atoms: _196  and  _197
REMARK   82  A    between atoms: _200  and  _202
REMARK   83  A    between atoms: _202  and  _203
REMARK   84  A    between atoms: _202  and  _205
REMARK   85  A    between atoms: _205  and  _206
REMARK   86  A    between atoms: _209  and  _211
REMARK   87  A    between atoms: _211  and  _212
REMARK   88  A    between atoms: _214  and  _216
REMARK   89  A    between atoms: _216  and  _217
REMARK   90  A    between atoms: _216  and  _219
REMARK   91  A    between atoms: _219  and  _220
REMARK   92  A    between atoms: _220  and  _221
REMARK   93  A    between atoms: _221  and  _222
REMARK   94  A    between atoms: _231  and  _233
REMARK   95  A    between atoms: _233  and  _234
REMARK   96  A    between atoms: _233  and  _236
REMARK   97  A    between atoms: _236  and  _237
REMARK   98  A    between atoms: _242  and  _244
REMARK   99  A    between atoms: _244  and  _245
REMARK  100  A    between atoms: _244  and  _247
REMARK  101  A    between atoms: _247  and  _248
REMARK  102  A    between atoms: _248  and  _249
REMARK  103  A    between atoms: _249  and  _250
REMARK  104  A    between atoms: _259  and  _261
REMARK  105  A    between atoms: _261  and  _262
REMARK  106  A    between atoms: _261  and  _264
REMARK  107  A    between atoms: _264  and  _265
REMARK  108  A    between atoms: _268  and  _270
REMARK  109  A    between atoms: _270  and  _271
REMARK  110  A    between atoms: _270  and  _273
REMARK  111  A    between atoms: _273  and  _274
REMARK  112  A    between atoms: _277  and  _279
REMARK  113  A    between atoms: _279  and  _280
REMARK  114  A    between atoms: _279  and  _282
REMARK  115  A    between atoms: _282  and  _283
REMARK  116  A    between atoms: _286  and  _288
REMARK  117  A    between atoms: _288  and  _289
REMARK  118  A    between atoms: _288  and  _291
REMARK  119  A    between atoms: _291  and  _292
REMARK  120  A    between atoms: _295  and  _297
REMARK  121  A    between atoms: _297  and  _298
REMARK  122  A    between atoms: _300  and  _302
REMARK  123  A    between atoms: _302  and  _303
REMARK  124  A    between atoms: _306  and  _308
REMARK  125  A    between atoms: _308  and  _309
REMARK  126  A    between atoms: _308  and  _311
REMARK  127  A    between atoms: _311  and  _312
REMARK  128  A    between atoms: _315  and  _317
REMARK  129  A    between atoms: _317  and  _318
REMARK  130  A    between atoms: _317  and  _320
REMARK  131  A    between atoms: _320  and  _321
REMARK  132  A    between atoms: _324  and  _326
REMARK  133  A    between atoms: _326  and  _327
REMARK  134  A    between atoms: _326  and  _329
REMARK  135  A    between atoms: _329  and  _330
REMARK  136  A    between atoms: _333  and  _335
REMARK  137  A    between atoms: _335  and  _336
REMARK  138  A    between atoms: _335  and  _338
REMARK  139  A    between atoms: _341  and  _343
REMARK  140  A    between atoms: _343  and  _344
REMARK  141  A    between atoms: _343  and  _346
REMARK  142  A    between atoms: _346  and  _347
REMARK  143  A    between atoms: _350  and  _352
REMARK  144  A    between atoms: _352  and  _353
REMARK  145  A    between atoms: _352  and  _355
REMARK  146  A    between atoms: _355  and  _356
REMARK  147  A    between atoms: _356  and  _357
REMARK  148  A    between atoms: _357  and  _358
REMARK  149  A    between atoms: _358  and  _359
REMARK  150  A    between atoms: _363  and  _365
REMARK  151  A    between atoms: _365  and  _366
REMARK  152  A    between atoms: _365  and  _368
REMARK  153  A    between atoms: _368  and  _369
REMARK  154  A    between atoms: _369  and  _370
REMARK  155  A    between atoms: _372  and  _374
REMARK  156  A    between atoms: _374  and  _375
REMARK  157  A    between atoms: _374  and  _377
REMARK  158  A    between atoms: _377  and  _378
REMARK  159  A    between atoms: _381  and  _383
REMARK  160  A    between atoms: _383  and  _384
REMARK  161  A    between atoms: _386  and  _388
REMARK  162  A    between atoms: _388  and  _389
REMARK  163  A    between atoms: _391  and  _393
REMARK  164  A    between atoms: _393  and  _394
REMARK  165  A    between atoms: _393  and  _396
REMARK  166  A    between atoms: _396  and  _397
REMARK  167  A    between atoms: _400  and  _402
REMARK  168  A    between atoms: _402  and  _403
REMARK  169  A    between atoms: _405  and  _407
REMARK  170  A    between atoms: _407  and  _408
REMARK  171  A    between atoms: _410  and  _412
REMARK  172  A    between atoms: _412  and  _413
REMARK  173  A    between atoms: _412  and  _415
REMARK  174  A    between atoms: _415  and  _416
REMARK  175  A    between atoms: _422  and  _424
REMARK  176  A    between atoms: _424  and  _425
REMARK  177  A    between atoms: _424  and  _427
REMARK  178  A    between atoms: _427  and  _428
REMARK  179  A    between atoms: _431  and  _433
REMARK  180  A    between atoms: _433  and  _434
REMARK  181  A    between atoms: _433  and  _436
REMARK  182  A    between atoms: _439  and  _441
REMARK  183  A    between atoms: _441  and  _442
REMARK  184  A    between atoms: _441  and  _444
REMARK  185  A    between atoms: _444  and  _445
REMARK  186  A    between atoms: _448  and  _450
REMARK  187  A    between atoms: _450  and  _451
REMARK  188  A    between atoms: _450  and  _453
REMARK  189  A    between atoms: _453  and  _454
REMARK  190  A    between atoms: _458  and  _459
REMARK  191  A    between atoms: _464  and  _466
REMARK  192  A    between atoms: _466  and  _467
REMARK  193  A    between atoms: _466  and  _469
REMARK  194  A    between atoms: _472  and  _474
REMARK  195  A    between atoms: _474  and  _475
REMARK  196  A    between atoms: _474  and  _477
REMARK  197  A    between atoms: _477  and  _478
REMARK  198  A    between atoms: _483  and  _485
REMARK  199  A    between atoms: _485  and  _486
REMARK  200  A    between atoms: _485  and  _488
REMARK  201  A    between atoms: _488  and  _489
REMARK  202  A    between atoms: _492  and  _494
REMARK  203  A    between atoms: _494  and  _495
REMARK  204  A    between atoms: _494  and  _497
REMARK  205  A    between atoms: _497  and  _498
REMARK  206  A    between atoms: _501  and  _503
REMARK  207  A    between atoms: _503  and  _504
REMARK  208  A    between atoms: _506  and  _508
REMARK  209  A    between atoms: _508  and  _509
REMARK  210  A    between atoms: _508  and  _511
REMARK  211  A    between atoms: _511  and  _512
REMARK  212  A    between atoms: _512  and  _513
REMARK  213  A    between atoms: _513  and  _514
REMARK  214  A    between atoms: _523  and  _525
REMARK  215  A    between atoms: _525  and  _526
REMARK  216  A    between atoms: _525  and  _528
REMARK  217  A    between atoms: _528  and  _529
REMARK                            x       y       z     vdW  Elec       q    Type
REMARK                         _______ _______ _______ _____ _____    ______ ____
ROOT
ATOM      1  CA  LEU A   1       6.887  35.078  16.542  0.00  0.00    +0.133 C 
ENDROOT
BRANCH   1   2
ATOM      2  N   LEU A   1       6.614  34.303  17.738  0.00  0.00    -0.239 NA
ATOM      3  H   LEU A   1       7.364  33.693  18.120  0.00  0.00    +0.142 HD
ENDBRANCH   1   2
BRANCH   1   4
ATOM      4  C   LEU A   1       6.497  34.203  15.367  0.00  0.00    +0.224 C 
ATOM      5  O   LEU A   1       6.675  32.981  15.414  0.00  0.00    -0.287 OA
ENDBRANCH   1   4
BRANCH   1   6
ATOM      6  CB  LEU A   1       8.362  35.470  16.475  0.00  0.00    +0.025 C 
BRANCH   6   7
ATOM      7  CG  LEU A   1       8.893  36.218  17.706  0.00  0.00    +0.002 C 
ATOM      8  CD2 LEU A   1       8.172  37.545  17.853  0.00  0.00    +0.000 C 
ATOM      9  CD1 LEU A   1      10.402  36.420  17.633  0.00  0.00    +0.000 C 
ENDBRANCH   6   7
ENDBRANCH   1   6
TORSDOF 4
REMARK  Name = ../refined-set-2016/3o99/3o99_pocket.pdb
REMARK  217 active torsions:
REMARK  status: ('A' for Active; 'I' for Inactive)
REMARK    1  A    between atoms: _1  and  _3
REMARK    2  A    between atoms: _3  and  _4
REMARK    3  A    between atoms: _3  and  _6
REMARK    4  A    between atoms: _6  and  _7
REMARK    5  A    between atoms: _7  and  _8
REMARK    6  A    between atoms: _8  and  _9
REMARK    7  A    between atoms: _18  and  _20
REMARK    8  A    between atoms: _20  and  _21
REMARK    9  A    between atoms: _20  and  _23
REMARK   10  A    between atoms: _23  and  _24
REMARK   11  A    between atoms: _27  and  _29
REMARK   12  A    between atoms: _29  and  _30
REMARK   13  A    between atoms: _29  and  _32
REMARK   14  A    between atoms: _32  and  _33
REMARK   15  A    between atoms: _36  and  _38
REMARK   16  A    between atoms: _38  and  _39
REMARK   17  A    between atoms: _38  and  _41
REMARK   18  A    between atoms: _41  and  _42
REMARK   19  A    between atoms: _45  and  _47
REMARK   20  A    between atoms: _47  and  _48
REMARK   21  A    between atoms: _47  and  _50
REMARK   22  A    between atoms: _50  and  _51
REMARK   23  A    between atoms: _54  and  _56
REMARK   24  A    between atoms: _56  and  _57
REMARK   25  A    between atoms: _59  and  _61
REMARK   26  A    between atoms: _61  and  _62
REMARK   27  A    between atoms: _65  and  _67
REMARK   28  A    between atoms: _67  and  _68
REMARK   29  A    between atoms: _67  and  _70
REMARK   30  A    between atoms: _70  and  _71
REMARK   31  A    between atoms: _74  and  _76
REMARK   32  A    between atoms: _76  and  _77
REMARK   33  A    between atoms: _76  and  _79
REMARK   34  A    between atoms: _79  and  _80
REMARK   35  A    between atoms: _83  and  _85
REMARK   36  A    between atoms: _85  and  _86
REMARK   37  A    between atoms: _85  and  _88
REMARK   38  A    between atoms: _88  and  _89
REMARK   39  A    between atoms: _92  and  _94
REMARK   40  A    between atoms: _94  and  _95
REMARK   41  A    between atoms: _94  and  _97
REMARK   42  A    between atoms: _100  and  _102
REMARK   43  A    between atoms: _102  and  _103
REMARK   44  A    between atoms: _102  and  _105
REMARK   45  A    between atoms: _105  and  _106
REMARK   46  A    between atoms: _109  and  _111
REMARK   47  A    between atoms: _111  and  _112
REMARK   48  A    between atoms: _114  and  _116
REMARK   49  A    between atoms: _116  and  _117
REMARK   50  A    between atoms: _119  and  _121
REMARK   51  A    between atoms: _121  and  _122
REMARK   52  A    between atoms: _121  and  _124
REMARK   53  A    between atoms: _124  and  _125
REMARK   54  A    between atoms: _128  and  _130
REMARK   55  A    between atoms: _130  and  _131
REMARK   56  A    between atoms: _133  and  _135
REMARK   57  A    between atoms: _135  and  _136
REMARK   58  A    between atoms: _138  and  _140
REMARK   59  A    between atoms: _140  and  _141
REMARK   60  A    between atoms: _140  and  _143
REMARK   61  A    between atoms: _143  and  _144
REMARK   62  A    between atoms: _147  and  _149
REMARK   63  A    between atoms: _149  and  _150
REMARK   64  A    between atoms: _149  and  _152
REMARK   65  A    between atoms: _152  and  _153
REMARK   66  A    between atoms: _156  and  _158
REMARK   67  A    between atoms: _158  and  _159
REMARK   68  A    between atoms: _158  and  _161
REMARK   69  A    between atoms: _161  and  _162
REMARK   70  A    between atoms: _166  and  _167
REMARK   71  A    between atoms: _172  and  _174
REMARK   72  A    between atoms: _174  and  _175
REMARK   73  A    between atoms: _174  and  _177
REMARK   74  A    between atoms: _180  and  _182
REMARK   75  A    between atoms: _182  and  _183
REMARK   76  A    between atoms: _182  and  _185
REMARK   77  A    between atoms: _185  and  _186
REMARK   78  A    between atoms: _191  and  _193
REMARK   79  A    between atoms: _193  and  _194
REMARK   80  A    between atoms: _193  and  _196
REMARK   81  A    between atoms: _196  and  _197
REMARK   82  A    between atoms: _200  and  _202
REMARK   83  A    between atoms: _202  and  _203
REMARK   84  A    between atoms: _202  and  _205
REMARK   85  A    between atoms: _205  and  _206
REMARK   86  A    between atoms: _209  and  _211
REMARK   87  A    between atoms: _211  and  _212
REMARK   88  A    between atoms: _214  and  _216
REMARK   89  A    between atoms: _216  and  _217
REMARK   90  A    between atoms: _216  and  _219
REMARK   91  A    between atoms: _219  and  _220
REMARK   92  A    between atoms: _220  and  _221
REMARK   93  A    between atoms: _221  and  _222
REMARK   94  A    between atoms: _231  and  _233
REMARK   95  A    between atoms: _233  and  _234
REMARK   96  A    between atoms: _233  and  _236
REMARK   97  A    between atoms: _236  and  _237
REMARK   98  A    between atoms: _242  and  _244
REMARK   99  A    between atoms: _244  and  _245
REMARK  100  A    between atoms: _244  and  _247
REMARK  101  A    between atoms: _247  and  _248
REMARK  102  A    between atoms: _248  and  _249
REMARK  103  A    between atoms: _249  and  _250
REMARK  104  A    between atoms: _259  and  _261
REMARK  105  A    between atoms: _261  and  _262
REMARK  106  A    between atoms: _261  and  _264
REMARK  107  A    between atoms: _264  and  _265
REMARK  108  A    between atoms: _268  and  _270
REMARK  109  A    between atoms: _270  and  _271
REMARK  110  A    between atoms: _270  and  _273
REMARK  111  A    between atoms: _273  and  _274
REMARK  112  A    between atoms: _277  and  _279
REMARK  113  A    between atoms: _279  and  _280
REMARK  114  A    between atoms: _279  and  _282
REMARK  115  A    between atoms: _282  and  _283
REMARK  116  A    between atoms: _286  and  _288
REMARK  117  A    between atoms: _288  and  _289
REMARK  118  A    between atoms: _288  and  _291
REMARK  119  A    between atoms: _291  and  _292
REMARK  120  A    between atoms: _295  and  _297
REMARK  121  A    between atoms: _297  and  _298
REMARK  122  A    between atoms: _300  and  _302
REMARK  123  A    between atoms: _302  and  _303
REMARK  124  A    between atoms: _306  and  _308
REMARK  125  A    between atoms: _308  and  _309
REMARK  126  A    between atoms: _308  and  _311
REMARK  127  A    between atoms: _311  and  _312
REMARK  128  A    between atoms: _315  and  _317
REMARK  129  A    between atoms: _317  and  _318
REMARK  130  A    between atoms: _317  and  _320
REMARK  131  A    between atoms: _320  and  _321
REMARK  132  A    between atoms: _324  and  _326
REMARK  133  A    between atoms: _326  and  _327
REMARK  134  A    between atoms: _326  and  _329
REMARK  135  A    between atoms: _329  and  _330
REMARK  136  A    between atoms: _333  and  _335
REMARK  137  A    between atoms: _335  and  _336
REMARK  138  A    between atoms: _335  and  _338
REMARK  139  A    between atoms: _341  and  _343
REMARK  140  A    between atoms: _343  and  _344
REMARK  141  A    between atoms: _343  and  _346
REMARK  142  A    between atoms: _346  and  _347
REMARK  143  A    between atoms: _350  and  _352
REMARK  144  A    between atoms: _352  and  _353
REMARK  145  A    between atoms: _352  and  _355
REMARK  146  A    between atoms: _355  and  _356
REMARK  147  A    between atoms: _356  and  _357
REMARK  148  A    between atoms: _357  and  _358
REMARK  149  A    between atoms: _358  and  _359
REMARK  150  A    between atoms: _363  and  _365
REMARK  151  A    between atoms: _365  and  _366
REMARK  152  A    between atoms: _365  and  _368
REMARK  153  A    between atoms: _368  and  _369
REMARK  154  A    between atoms: _369  and  _370
REMARK  155  A    between atoms: _372  and  _374
REMARK  156  A    between atoms: _374  and  _375
REMARK  157  A    between atoms: _374  and  _377
REMARK  158  A    between atoms: _377  and  _378
REMARK  159  A    between atoms: _381  and  _383
REMARK  160  A    between atoms: _383  and  _384
REMARK  161  A    between atoms: _386  and  _388
REMARK  162  A    between atoms: _388  and  _389
REMARK  163  A    between atoms: _391  and  _393
REMARK  164  A    between atoms: _393  and  _394
REMARK  165  A    between atoms: _393  and  _396
REMARK  166  A    between atoms: _396  and  _397
REMARK  167  A    between atoms: _400  and  _402
REMARK  168  A    between atoms: _402  and  _403
REMARK  169  A    between atoms: _405  and  _407
REMARK  170  A    between atoms: _407  and  _408
REMARK  171  A    between atoms: _410  and  _412
REMARK  172  A    between atoms: _412  and  _413
REMARK  173  A    between atoms: _412  and  _415
REMARK  174  A    between atoms: _415  and  _416
REMARK  175  A    between atoms: _422  and  _424
REMARK  176  A    between atoms: _424  and  _425
REMARK  177  A    between atoms: _424  and  _427
REMARK  178  A    between atoms: _427  and  _428
REMARK  179  A    between atoms: _431  and  _433
REMARK  180  A    between atoms: _433  and  _434
REMARK  181  A    between atoms: _433  and  _436
REMARK  182  A    between atoms: _439  and  _441
REMARK  183  A    between atoms: _441  and  _442
REMARK  184  A    between atoms: _441  and  _444
REMARK  185  A    between atoms: _444  and  _445
REMARK  186  A    between atoms: _448  and  _450
REMARK  187  A    between atoms: _450  and  _451
REMARK  188  A    between atoms: _450  and  _453
REMARK  189  A    between atoms: _453  and  _454
REMARK  190  A    between atoms: _458  and  _459
REMARK  191  A    between atoms: _464  and  _466
REMARK  192  A    between atoms: _466  and  _467
REMARK  193  A    between atoms: _466  and  _469
REMARK  194  A    between atoms: _472  and  _474
REMARK  195  A    between atoms: _474  and  _475
REMARK  196  A    between atoms: _474  and  _477
REMARK  197  A    between atoms: _477  and  _478
REMARK  198  A    between atoms: _483  and  _485
REMARK  199  A    between atoms: _485  and  _486
REMARK  200  A    between atoms: _485  and  _488
REMARK  201  A    between atoms: _488  and  _489
REMARK  202  A    between atoms: _492  and  _494
REMARK  203  A    between atoms: _494  and  _495
REMARK  204  A    between atoms: _494  and  _497
REMARK  205  A    between atoms: _497  and  _498
REMARK  206  A    between atoms: _501  and  _503
REMARK  207  A    between atoms: _503  and  _504
REMARK  208  A    between atoms: _506  and  _508
REMARK  209  A    between atoms: _508  and  _509
REMARK  210  A    between atoms: _508  and  _511
REMARK  211  A    between atoms: _511  and  _512
REMARK  212  A    between atoms: _512  and  _513
REMARK  213  A    between atoms: _513  and  _514
REMARK  214  A    between atoms: _523  and  _525
REMARK  215  A    between atoms: _525  and  _526
REMARK  216  A    between atoms: _525  and  _528
REMARK  217  A    between atoms: _528  and  _529
REMARK                            x       y       z     vdW  Elec       q    Type
REMARK                         _______ _______ _______ _____ _____    ______ ____
ROOT
ATOM      1  C   ILE A   5      11.365  27.427  17.899  0.00  0.00    +0.241 C 
ATOM      2  N   ILE A   6      11.622  26.560  18.878  0.00  0.00    -0.297 N 
ATOM      3  H   ILE A   6      12.127  25.677  18.659  0.00  0.00    +0.150 HD
ATOM      4  O   ILE A   5      10.632  28.417  18.038  0.00  0.00    -0.273 OA
ENDROOT
BRANCH   2   5
ATOM      5  CA  ILE A   6      11.208  26.827  20.249  0.00  0.00    +0.149 C 
BRANCH   5   6
ATOM      6  C   ILE A   6      12.393  27.474  20.944  0.00  0.00    +0.241 C 
ATOM      7  N   GLY A   7      12.238  28.749  21.284  0.00  0.00    -0.295 N 
ATOM      8  H   GLY A   7      11.312  29.199  21.135  0.00  0.00    +0.150 HD
ATOM      9  O   ILE A   6      13.419  26.830  21.159  0.00  0.00    -0.273 OA
BRANCH   7  10
ATOM     10  CA  GLY A   7      13.319  29.538  21.858  0.00  0.00    +0.176 C 
BRANCH  10  11
ATOM     11  C   GLY A   7      13.248  29.576  23.366  0.00  0.00    +0.243 C 
ATOM     12  O   GLY A   7      12.353  28.977  23.973  0.00  0.00    -0.273 OA
ATOM     13  N   ARG A   8      14.199  30.295  23.960  0.00  0.00    -0.297 N 
ATOM     14  H   ARG A   8      14.832  30.871  23.369  0.00  0.00    +0.150 HD
BRANCH  13  15
ATOM     15  CA  ARG A   8      14.388  30.307  25.407  0.00  0.00    +0.149 C 
BRANCH  15  16
ATOM     16  C   ARG A   8      13.186  30.796  26.189  0.00  0.00    +0.241 C 
ATOM     17  O   ARG A   8      12.988  30.366  27.321  0.00  0.00    -0.273 OA
ATOM     18  N   ASN A   9      12.375  31.666  25.595  0.00  0.00    -0.298 N 
ATOM     19  H   ASN A   9      12.568  31.958  24.616  0.00  0.00    +0.150 HD
BRANCH  18  20
ATOM     20  CA  ASN A   9      11.220  32.217  26.294  0.00  0.00    +0.146 C 
BRANCH  20  21
ATOM     21  C   ASN A   9      10.264  31.107  26.745  0.00  0.00    +0.227 C 
ATOM     22  O   ASN A   9       9.623  31.238  27.773  0.00  0.00    -0.286 OA
ENDBRANCH  20  21
BRANCH  20  23
ATOM     23  CB  ASN A   9      10.510  33.274  25.441  0.00  0.00    +0.112 C 
BRANCH  23  24
ATOM     24  CG  ASN A   9       9.743  32.679  24.266  0.00  0.00    +0.222 C 
ATOM     25  ND2 ASN A   9       8.426  32.942  24.212  0.00  0.00    -0.329 N 
ATOM     26 HD21 ASN A   9       7.981  33.521  24.952  0.00  0.00    +0.145 HD
ATOM     27 HD22 ASN A   9       7.852  32.566  23.430  0.00  0.00    +0.145 HD
ATOM     28  OD1 ASN A   9      10.325  31.997  23.415  0.00  0.00    -0.275 OA
ENDBRANCH  23  24
ENDBRANCH  20  23
ENDBRANCH  18  20
ENDBRANCH  15  16
BRANCH  15  29
ATOM     29  CB  ARG A   8      15.617  31.138  25.788  0.00  0.00    +0.033 C 
BRANCH  29  30
ATOM     30  CG  ARG A   8      16.946  30.518  25.316  0.00  0.00    +0.045 C 
BRANCH  30  31
ATOM     31  CD  ARG A   8      18.153  31.276  25.862  0.00  0.00    +0.174 C 
BRANCH  31  32
ATOM     32  NE  ARG A   8      18.196  32.673  25.428  0.00  0.00    -0.265 N 
ATOM     33  CZ  ARG A   8      17.811  33.720  26.151  0.00  0.00    +0.342 C 
ATOM     34  NH2 ARG A   8      17.315  33.578  27.371  0.00  0.00    -0.292 N 
ATOM     35 HH21 ARG A   8      17.022  34.415  27.914  0.00  0.00    +0.255 HD
ATOM     36 HH22 ARG A   8      17.219  32.629  27.786  0.00  0.00    +0.255 HD
ATOM     37  NH1 ARG A   8      17.904  34.935  25.632  0.00  0.00    -0.292 N 
ATOM     38 HH11 ARG A   8      17.606  35.762  26.188  0.00  0.00    +0.255 HD
ATOM     39 HH12 ARG A   8      18.275  35.062  24.669  0.00  0.00    +0.255 HD
ATOM     40  HE  ARG A   8      18.559  32.863  24.472  0.00  0.00    +0.259 HD
ENDBRANCH  31  32
ENDBRANCH  30  31
ENDBRANCH  29  30
ENDBRANCH  15  29
ENDBRANCH  13  15
ENDBRANCH  10  11
ENDBRANCH   7  10
ENDBRANCH   5   6
BRANCH   5  41
ATOM     41  CB  ILE A   6      10.790  25.560  21.016  0.00  0.00    +0.027 C 
ATOM     42  CG2 ILE A   6      10.386  25.919  22.462  0.00  0.00    +0.002 C 
BRANCH  41  43
ATOM     43  CG1 ILE A   6       9.663  24.829  20.280  0.00  0.00    +0.002 C 
ATOM     44  CD1 ILE A   6       8.416  25.693  20.003  0.00  0.00    +0.000 C 
ENDBRANCH  41  43
ENDBRANCH   5  41
ENDBRANCH   2   5
BRANCH   1  45
ATOM     45  CA  ILE A   5      12.003  27.120  16.551  0.00  0.00    +0.149 C 
BRANCH  45  47
ATOM     46  C   ASN A   4      10.905  25.895  14.738  0.00  0.00    +0.241 C 
ATOM     47  N   ILE A   5      10.980  26.962  15.528  0.00  0.00    -0.297 N 
ATOM     48  H   ILE A   5      10.276  27.718  15.409  0.00  0.00    +0.150 HD
ATOM     49  O   ASN A   4      11.578  24.860  14.917  0.00  0.00    -0.273 OA
BRANCH  46  50
ATOM     50  CA  ASN A   4       9.885  25.962  13.597  0.00  0.00    +0.158 C 
BRANCH  50  52
ATOM     51  C   VAL A   3      11.433  26.271  11.751  0.00  0.00    +0.241 C 
ATOM     52  N   ASN A   4      10.571  25.492  12.393  0.00  0.00    -0.297 N 
ATOM     53  H   ASN A   4      10.381  24.534  12.035  0.00  0.00    +0.150 HD
ATOM     54  O   VAL A   3      11.622  27.456  12.059  0.00  0.00    -0.273 OA
BRANCH  51  55
ATOM     55  CA  VAL A   3      12.182  25.648  10.584  0.00  0.00    +0.149 C 
BRANCH  55  57
ATOM     56  C   PRO A   2      12.347  26.427   8.287  0.00  0.00    +0.241 C 
ATOM     57  N   VAL A   3      12.411  26.682   9.586  0.00  0.00    -0.297 N 
ATOM     58  H   VAL A   3      12.631  27.648   9.901  0.00  0.00    +0.150 HD
ATOM     59  O   PRO A   2      12.080  25.310   7.845  0.00  0.00    -0.273 OA
BRANCH  56  66
ATOM     60  C   THR A   1      11.459  29.483   8.268  0.00  0.00    +0.244 C 
ATOM     61  O   THR A   1      10.375  28.975   7.992  0.00  0.00    -0.273 OA
ATOM     62  N   PRO A   2      12.627  28.910   7.933  0.00  0.00    -0.272 N 
ATOM     63  CD  PRO A   2      13.970  29.497   8.093  0.00  0.00    +0.094 C 
ATOM     64  CG  PRO A   2      14.897  28.389   7.664  0.00  0.00    +0.024 C 
ATOM     65  CB  PRO A   2      14.132  27.445   6.861  0.00  0.00    +0.031 C 
ATOM     66  CA  PRO A   2      12.674  27.576   7.332  0.00  0.00    +0.152 C 
BRANCH  60  67
ATOM     67  CA  THR A   1      11.520  30.826   9.003  0.00  0.00    +0.172 C 
BRANCH  67  68
ATOM     68  N   THR A   1      10.425  31.678   8.564  0.00  0.00    -0.236 NA
ATOM     69  H   THR A   1       9.582  31.760   9.168  0.00  0.00    +0.142 HD
ENDBRANCH  67  68
BRANCH  67  70
ATOM     70  CB  THR A   1      11.486  30.599  10.526  0.00  0.00    +0.135 C 
ATOM     71  CG2 THR A   1      10.118  30.045  10.982  0.00  0.00    +0.034 C 
BRANCH  70  72
ATOM     72  OG1 THR A   1      12.544  29.709  10.910  0.00  0.00    -0.383 OA
ATOM     73  HG1 THR A   1      12.428  28.842  10.447  0.00  0.00    +0.210 HD
ENDBRANCH  70  72
ENDBRANCH  67  70
ENDBRANCH  60  67
ENDBRANCH  56  66
ENDBRANCH  55  57
BRANCH  55  74
ATOM     74  CB  VAL A   3      13.522  25.040  11.073  0.00  0.00    +0.027 C 
ATOM     75  CG2 VAL A   3      14.413  26.124  11.671  0.00  0.00    +0.002 C 
ATOM     76  CG1 VAL A   3      14.243  24.334   9.936  0.00  0.00    +0.002 C 
ENDBRANCH  55  74
ENDBRANCH  51  55
ENDBRANCH  50  52
BRANCH  50  77
ATOM     77  CB  ASN A   4       8.680  25.078  13.950  0.00  0.00    +0.114 C 
BRANCH  77  78
ATOM     78  CG  ASN A   4       7.530  25.200  12.968  0.00  0.00    +0.222 C 
ATOM     79  OD1 ASN A   4       7.028  26.293  12.711  0.00  0.00    -0.275 OA
ATOM     80  ND2 ASN A   4       7.069  24.066  12.460  0.00  0.00    -0.329 N 
ATOM     81 HD21 ASN A   4       7.524  23.164  12.705  0.00  0.00    +0.145 HD
ATOM     82 HD22 ASN A   4       6.252  24.079  11.817  0.00  0.00    +0.145 HD
ENDBRANCH  77  78
ENDBRANCH  50  77
ENDBRANCH  46  50
ENDBRANCH  45  47
BRANCH  45  83
ATOM     83  CB  ILE A   5      12.989  28.243  16.185  0.00  0.00    +0.027 C 
ATOM     84  CG2 ILE A   5      13.887  28.598  17.388  0.00  0.00    +0.002 C 
BRANCH  83  85
ATOM     85  CG1 ILE A   5      13.829  27.839  14.968  0.00  0.00    +0.002 C 
ATOM     86  CD1 ILE A   5      14.537  28.981  14.271  0.00  0.00    +0.000 C 
ENDBRANCH  83  85
ENDBRANCH  45  83
ENDBRANCH   1  45
TORSDOF 32
REMARK  Name = ../refined-set-2016/3o99/3o99_pocket.pdb
REMARK  217 active torsions:
REMARK  status: ('A' for Active; 'I' for Inactive)
REMARK    1  A    between atoms: _1  and  _3
REMARK    2  A    between atoms: _3  and  _4
REMARK    3  A    between atoms: _3  and  _6
REMARK    4  A    between atoms: _6  and  _7
REMARK    5  A    between atoms: _7  and  _8
REMARK    6  A    between atoms: _8  and  _9
REMARK    7  A    between atoms: _18  and  _20
REMARK    8  A    between atoms: _20  and  _21
REMARK    9  A    between atoms: _20  and  _23
REMARK   10  A    between atoms: _23  and  _24
REMARK   11  A    between atoms: _27  and  _29
REMARK   12  A    between atoms: _29  and  _30
REMARK   13  A    between atoms: _29  and  _32
REMARK   14  A    between atoms: _32  and  _33
REMARK   15  A    between atoms: _36  and  _38
REMARK   16  A    between atoms: _38  and  _39
REMARK   17  A    between atoms: _38  and  _41
REMARK   18  A    between atoms: _41  and  _42
REMARK   19  A    between atoms: _45  and  _47
REMARK   20  A    between atoms: _47  and  _48
REMARK   21  A    between atoms: _47  and  _50
REMARK   22  A    between atoms: _50  and  _51
REMARK   23  A    between atoms: _54  and  _56
REMARK   24  A    between atoms: _56  and  _57
REMARK   25  A    between atoms: _59  and  _61
REMARK   26  A    between atoms: _61  and  _62
REMARK   27  A    between atoms: _65  and  _67
REMARK   28  A    between atoms: _67  and  _68
REMARK   29  A    between atoms: _67  and  _70
REMARK   30  A    between atoms: _70  and  _71
REMARK   31  A    between atoms: _74  and  _76
REMARK   32  A    between atoms: _76  and  _77
REMARK   33  A    between atoms: _76  and  _79
REMARK   34  A    between atoms: _79  and  _80
REMARK   35  A    between atoms: _83  and  _85
REMARK   36  A    between atoms: _85  and  _86
REMARK   37  A    between atoms: _85  and  _88
REMARK   38  A    between atoms: _88  and  _89
REMARK   39  A    between atoms: _92  and  _94
REMARK   40  A    between atoms: _94  and  _95
REMARK   41  A    between atoms: _94  and  _97
REMARK   42  A    between atoms: _100  and  _102
REMARK   43  A    between atoms: _102  and  _103
REMARK   44  A    between atoms: _102  and  _105
REMARK   45  A    between atoms: _105  and  _106
REMARK   46  A    between atoms: _109  and  _111
REMARK   47  A    between atoms: _111  and  _112
REMARK   48  A    between atoms: _114  and  _116
REMARK   49  A    between atoms: _116  and  _117
REMARK   50  A    between atoms: _119  and  _121
REMARK   51  A    between atoms: _121  and  _122
REMARK   52  A    between atoms: _121  and  _124
REMARK   53  A    between atoms: _124  and  _125
REMARK   54  A    between atoms: _128  and  _130
REMARK   55  A    between atoms: _130  and  _131
REMARK   56  A    between atoms: _133  and  _135
REMARK   57  A    between atoms: _135  and  _136
REMARK   58  A    between atoms: _138  and  _140
REMARK   59  A    between atoms: _140  and  _141
REMARK   60  A    between atoms: _140  and  _143
REMARK   61  A    between atoms: _143  and  _144
REMARK   62  A    between atoms: _147  and  _149
REMARK   63  A    between atoms: _149  and  _150
REMARK   64  A    between atoms: _149  and  _152
REMARK   65  A    between atoms: _152  and  _153
REMARK   66  A    between atoms: _156  and  _158
REMARK   67  A    between atoms: _158  and  _159
REMARK   68  A    between atoms: _158  and  _161
REMARK   69  A    between atoms: _161  and  _162
REMARK   70  A    between atoms: _166  and  _167
REMARK   71  A    between atoms: _172  and  _174
REMARK   72  A    between atoms: _174  and  _175
REMARK   73  A    between atoms: _174  and  _177
REMARK   74  A    between atoms: _180  and  _182
REMARK   75  A    between atoms: _182  and  _183
REMARK   76  A    between atoms: _182  and  _185
REMARK   77  A    between atoms: _185  and  _186
REMARK   78  A    between atoms: _191  and  _193
REMARK   79  A    between atoms: _193  and  _194
REMARK   80  A    between atoms: _193  and  _196
REMARK   81  A    between atoms: _196  and  _197
REMARK   82  A    between atoms: _200  and  _202
REMARK   83  A    between atoms: _202  and  _203
REMARK   84  A    between atoms: _202  and  _205
REMARK   85  A    between atoms: _205  and  _206
REMARK   86  A    between atoms: _209  and  _211
REMARK   87  A    between atoms: _211  and  _212
REMARK   88  A    between atoms: _214  and  _216
REMARK   89  A    between atoms: _216  and  _217
REMARK   90  A    between atoms: _216  and  _219
REMARK   91  A    between atoms: _219  and  _220
REMARK   92  A    between atoms: _220  and  _221
REMARK   93  A    between atoms: _221  and  _222
REMARK   94  A    between atoms: _231  and  _233
REMARK   95  A    between atoms: _233  and  _234
REMARK   96  A    between atoms: _233  and  _236
REMARK   97  A    between atoms: _236  and  _237
REMARK   98  A    between atoms: _242  and  _244
REMARK   99  A    between atoms: _244  and  _245
REMARK  100  A    between atoms: _244  and  _247
REMARK  101  A    between atoms: _247  and  _248
REMARK  102  A    between atoms: _248  and  _249
REMARK  103  A    between atoms: _249  and  _250
REMARK  104  A    between atoms: _259  and  _261
REMARK  105  A    between atoms: _261  and  _262
REMARK  106  A    between atoms: _261  and  _264
REMARK  107  A    between atoms: _264  and  _265
REMARK  108  A    between atoms: _268  and  _270
REMARK  109  A    between atoms: _270  and  _271
REMARK  110  A    between atoms: _270  and  _273
REMARK  111  A    between atoms: _273  and  _274
REMARK  112  A    between atoms: _277  and  _279
REMARK  113  A    between atoms: _279  and  _280
REMARK  114  A    between atoms: _279  and  _282
REMARK  115  A    between atoms: _282  and  _283
REMARK  116  A    between atoms: _286  and  _288
REMARK  117  A    between atoms: _288  and  _289
REMARK  118  A    between atoms: _288  and  _291
REMARK  119  A    between atoms: _291  and  _292
REMARK  120  A    between atoms: _295  and  _297
REMARK  121  A    between atoms: _297  and  _298
REMARK  122  A    between atoms: _300  and  _302
REMARK  123  A    between atoms: _302  and  _303
REMARK  124  A    between atoms: _306  and  _308
REMARK  125  A    between atoms: _308  and  _309
REMARK  126  A    between atoms: _308  and  _311
REMARK  127  A    between atoms: _311  and  _312
REMARK  128  A    between atoms: _315  and  _317
REMARK  129  A    between atoms: _317  and  _318
REMARK  130  A    between atoms: _317  and  _320
REMARK  131  A    between atoms: _320  and  _321
REMARK  132  A    between atoms: _324  and  _326
REMARK  133  A    between atoms: _326  and  _327
REMARK  134  A    between atoms: _326  and  _329
REMARK  135  A    between atoms: _329  and  _330
REMARK  136  A    between atoms: _333  and  _335
REMARK  137  A    between atoms: _335  and  _336
REMARK  138  A    between atoms: _335  and  _338
REMARK  139  A    between atoms: _341  and  _343
REMARK  140  A    between atoms: _343  and  _344
REMARK  141  A    between atoms: _343  and  _346
REMARK  142  A    between atoms: _346  and  _347
REMARK  143  A    between atoms: _350  and  _352
REMARK  144  A    between atoms: _352  and  _353
REMARK  145  A    between atoms: _352  and  _355
REMARK  146  A    between atoms: _355  and  _356
REMARK  147  A    between atoms: _356  and  _357
REMARK  148  A    between atoms: _357  and  _358
REMARK  149  A    between atoms: _358  and  _359
REMARK  150  A    between atoms: _363  and  _365
REMARK  151  A    between atoms: _365  and  _366
REMARK  152  A    between atoms: _365  and  _368
REMARK  153  A    between atoms: _368  and  _369
REMARK  154  A    between atoms: _369  and  _370
REMARK  155  A    between atoms: _372  and  _374
REMARK  156  A    between atoms: _374  and  _375
REMARK  157  A    between atoms: _374  and  _377
REMARK  158  A    between atoms: _377  and  _378
REMARK  159  A    between atoms: _381  and  _383
REMARK  160  A    between atoms: _383  and  _384
REMARK  161  A    between atoms: _386  and  _388
REMARK  162  A    between atoms: _388  and  _389
REMARK  163  A    between atoms: _391  and  _393
REMARK  164  A    between atoms: _393  and  _394
REMARK  165  A    between atoms: _393  and  _396
REMARK  166  A    between atoms: _396  and  _397
REMARK  167  A    between atoms: _400  and  _402
REMARK  168  A    between atoms: _402  and  _403
REMARK  169  A    between atoms: _405  and  _407
REMARK  170  A    between atoms: _407  and  _408
REMARK  171  A    between atoms: _410  and  _412
REMARK  172  A    between atoms: _412  and  _413
REMARK  173  A    between atoms: _412  and  _415
REMARK  174  A    between atoms: _415  and  _416
REMARK  175  A    between atoms: _422  and  _424
REMARK  176  A    between atoms: _424  and  _425
REMARK  177  A    between atoms: _424  and  _427
REMARK  178  A    between atoms: _427  and  _428
REMARK  179  A    between atoms: _431  and  _433
REMARK  180  A    between atoms: _433  and  _434
REMARK  181  A    between atoms: _433  and  _436
REMARK  182  A    between atoms: _439  and  _441
REMARK  183  A    between atoms: _441  and  _442
REMARK  184  A    between atoms: _441  and  _444
REMARK  185  A    between atoms: _444  and  _445
REMARK  186  A    between atoms: _448  and  _450
REMARK  187  A    between atoms: _450  and  _451
REMARK  188  A    between atoms: _450  and  _453
REMARK  189  A    between atoms: _453  and  _454
REMARK  190  A    between atoms: _458  and  _459
REMARK  191  A    between atoms: _464  and  _466
REMARK  192  A    between atoms: _466  and  _467
REMARK  193  A    between atoms: _466  and  _469
REMARK  194  A    between atoms: _472  and  _474
REMARK  195  A    between atoms: _474  and  _475
REMARK  196  A    between atoms: _474  and  _477
REMARK  197  A    between atoms: _477  and  _478
REMARK  198  A    between atoms: _483  and  _485
REMARK  199  A    between atoms: _485  and  _486
REMARK  200  A    between atoms: _485  and  _488
REMARK  201  A    between atoms: _488  and  _489
REMARK  202  A    between atoms: _492  and  _494
REMARK  203  A    between atoms: _494  and  _495
REMARK  204  A    between atoms: _494  and  _497
REMARK  205  A    between atoms: _497  and  _498
REMARK  206  A    between atoms: _501  and  _503
REMARK  207  A    between atoms: _503  and  _504
REMARK  208  A    between atoms: _506  and  _508
REMARK  209  A    between atoms: _508  and  _509
REMARK  210  A    between atoms: _508  and  _511
REMARK  211  A    between atoms: _511  and  _512
REMARK  212  A    between atoms: _512  and  _513
REMARK  213  A    between atoms: _513  and  _514
REMARK  214  A    between atoms: _523  and  _525
REMARK  215  A    between atoms: _525  and  _526
REMARK  216  A    between atoms: _525  and  _528
REMARK  217  A    between atoms: _528  and  _529
REMARK                            x       y       z     vdW  Elec       q    Type
REMARK                         _______ _______ _______ _____ _____    ______ ____
ROOT
ATOM      1  O   HOH     1      20.009  21.431  15.604  0.00  0.00    +0.000 OA
ENDROOT
TORSDOF 0
REMARK  Name = ../refined-set-2016/3o99/3o99_pocket.pdb
REMARK  217 active torsions:
REMARK  status: ('A' for Active; 'I' for Inactive)
REMARK    1  A    between atoms: _1  and  _3
REMARK    2  A    between atoms: _3  and  _4
REMARK    3  A    between atoms: _3  and  _6
REMARK    4  A    between atoms: _6  and  _7
REMARK    5  A    between atoms: _7  and  _8
REMARK    6  A    between atoms: _8  and  _9
REMARK    7  A    between atoms: _18  and  _20
REMARK    8  A    between atoms: _20  and  _21
REMARK    9  A    between atoms: _20  and  _23
REMARK   10  A    between atoms: _23  and  _24
REMARK   11  A    between atoms: _27  and  _29
REMARK   12  A    between atoms: _29  and  _30
REMARK   13  A    between atoms: _29  and  _32
REMARK   14  A    between atoms: _32  and  _33
REMARK   15  A    between atoms: _36  and  _38
REMARK   16  A    between atoms: _38  and  _39
REMARK   17  A    between atoms: _38  and  _41
REMARK   18  A    between atoms: _41  and  _42
REMARK   19  A    between atoms: _45  and  _47
REMARK   20  A    between atoms: _47  and  _48
REMARK   21  A    between atoms: _47  and  _50
REMARK   22  A    between atoms: _50  and  _51
REMARK   23  A    between atoms: _54  and  _56
REMARK   24  A    between atoms: _56  and  _57
REMARK   25  A    between atoms: _59  and  _61
REMARK   26  A    between atoms: _61  and  _62
REMARK   27  A    between atoms: _65  and  _67
REMARK   28  A    between atoms: _67  and  _68
REMARK   29  A    between atoms: _67  and  _70
REMARK   30  A    between atoms: _70  and  _71
REMARK   31  A    between atoms: _74  and  _76
REMARK   32  A    between atoms: _76  and  _77
REMARK   33  A    between atoms: _76  and  _79
REMARK   34  A    between atoms: _79  and  _80
REMARK   35  A    between atoms: _83  and  _85
REMARK   36  A    between atoms: _85  and  _86
REMARK   37  A    between atoms: _85  and  _88
REMARK   38  A    between atoms: _88  and  _89
REMARK   39  A    between atoms: _92  and  _94
REMARK   40  A    between atoms: _94  and  _95
REMARK   41  A    between atoms: _94  and  _97
REMARK   42  A    between atoms: _100  and  _102
REMARK   43  A    between atoms: _102  and  _103
REMARK   44  A    between atoms: _102  and  _105
REMARK   45  A    between atoms: _105  and  _106
REMARK   46  A    between atoms: _109  and  _111
REMARK   47  A    between atoms: _111  and  _112
REMARK   48  A    between atoms: _114  and  _116
REMARK   49  A    between atoms: _116  and  _117
REMARK   50  A    between atoms: _119  and  _121
REMARK   51  A    between atoms: _121  and  _122
REMARK   52  A    between atoms: _121  and  _124
REMARK   53  A    between atoms: _124  and  _125
REMARK   54  A    between atoms: _128  and  _130
REMARK   55  A    between atoms: _130  and  _131
REMARK   56  A    between atoms: _133  and  _135
REMARK   57  A    between atoms: _135  and  _136
REMARK   58  A    between atoms: _138  and  _140
REMARK   59  A    between atoms: _140  and  _141
REMARK   60  A    between atoms: _140  and  _143
REMARK   61  A    between atoms: _143  and  _144
REMARK   62  A    between atoms: _147  and  _149
REMARK   63  A    between atoms: _149  and  _150
REMARK   64  A    between atoms: _149  and  _152
REMARK   65  A    between atoms: _152  and  _153
REMARK   66  A    between atoms: _156  and  _158
REMARK   67  A    between atoms: _158  and  _159
REMARK   68  A    between atoms: _158  and  _161
REMARK   69  A    between atoms: _161  and  _162
REMARK   70  A    between atoms: _166  and  _167
REMARK   71  A    between atoms: _172  and  _174
REMARK   72  A    between atoms: _174  and  _175
REMARK   73  A    between atoms: _174  and  _177
REMARK   74  A    between atoms: _180  and  _182
REMARK   75  A    between atoms: _182  and  _183
REMARK   76  A    between atoms: _182  and  _185
REMARK   77  A    between atoms: _185  and  _186
REMARK   78  A    between atoms: _191  and  _193
REMARK   79  A    between atoms: _193  and  _194
REMARK   80  A    between atoms: _193  and  _196
REMARK   81  A    between atoms: _196  and  _197
REMARK   82  A    between atoms: _200  and  _202
REMARK   83  A    between atoms: _202  and  _203
REMARK   84  A    between atoms: _202  and  _205
REMARK   85  A    between atoms: _205  and  _206
REMARK   86  A    between atoms: _209  and  _211
REMARK   87  A    between atoms: _211  and  _212
REMARK   88  A    between atoms: _214  and  _216
REMARK   89  A    between atoms: _216  and  _217
REMARK   90  A    between atoms: _216  and  _219
REMARK   91  A    between atoms: _219  and  _220
REMARK   92  A    between atoms: _220  and  _221
REMARK   93  A    between atoms: _221  and  _222
REMARK   94  A    between atoms: _231  and  _233
REMARK   95  A    between atoms: _233  and  _234
REMARK   96  A    between atoms: _233  and  _236
REMARK   97  A    between atoms: _236  and  _237
REMARK   98  A    between atoms: _242  and  _244
REMARK   99  A    between atoms: _244  and  _245
REMARK  100  A    between atoms: _244  and  _247
REMARK  101  A    between atoms: _247  and  _248
REMARK  102  A    between atoms: _248  and  _249
REMARK  103  A    between atoms: _249  and  _250
REMARK  104  A    between atoms: _259  and  _261
REMARK  105  A    between atoms: _261  and  _262
REMARK  106  A    between atoms: _261  and  _264
REMARK  107  A    between atoms: _264  and  _265
REMARK  108  A    between atoms: _268  and  _270
REMARK  109  A    between atoms: _270  and  _271
REMARK  110  A    between atoms: _270  and  _273
REMARK  111  A    between atoms: _273  and  _274
REMARK  112  A    between atoms: _277  and  _279
REMARK  113  A    between atoms: _279  and  _280
REMARK  114  A    between atoms: _279  and  _282
REMARK  115  A    between atoms: _282  and  _283
REMARK  116  A    between atoms: _286  and  _288
REMARK  117  A    between atoms: _288  and  _289
REMARK  118  A    between atoms: _288  and  _291
REMARK  119  A    between atoms: _291  and  _292
REMARK  120  A    between atoms: _295  and  _297
REMARK  121  A    between atoms: _297  and  _298
REMARK  122  A    between atoms: _300  and  _302
REMARK  123  A    between atoms: _302  and  _303
REMARK  124  A    between atoms: _306  and  _308
REMARK  125  A    between atoms: _308  and  _309
REMARK  126  A    between atoms: _308  and  _311
REMARK  127  A    between atoms: _311  and  _312
REMARK  128  A    between atoms: _315  and  _317
REMARK  129  A    between atoms: _317  and  _318
REMARK  130  A    between atoms: _317  and  _320
REMARK  131  A    between atoms: _320  and  _321
REMARK  132  A    between atoms: _324  and  _326
REMARK  133  A    between atoms: _326  and  _327
REMARK  134  A    between atoms: _326  and  _329
REMARK  135  A    between atoms: _329  and  _330
REMARK  136  A    between atoms: _333  and  _335
REMARK  137  A    between atoms: _335  and  _336
REMARK  138  A    between atoms: _335  and  _338
REMARK  139  A    between atoms: _341  and  _343
REMARK  140  A    between atoms: _343  and  _344
REMARK  141  A    between atoms: _343  and  _346
REMARK  142  A    between atoms: _346  and  _347
REMARK  143  A    between atoms: _350  and  _352
REMARK  144  A    between atoms: _352  and  _353
REMARK  145  A    between atoms: _352  and  _355
REMARK  146  A    between atoms: _355  and  _356
REMARK  147  A    between atoms: _356  and  _357
REMARK  148  A    between atoms: _357  and  _358
REMARK  149  A    between atoms: _358  and  _359
REMARK  150  A    between atoms: _363  and  _365
REMARK  151  A    between atoms: _365  and  _366
REMARK  152  A    between atoms: _365  and  _368
REMARK  153  A    between atoms: _368  and  _369
REMARK  154  A    between atoms: _369  and  _370
REMARK  155  A    between atoms: _372  and  _374
REMARK  156  A    between atoms: _374  and  _375
REMARK  157  A    between atoms: _374  and  _377
REMARK  158  A    between atoms: _377  and  _378
REMARK  159  A    between atoms: _381  and  _383
REMARK  160  A    between atoms: _383  and  _384
REMARK  161  A    between atoms: _386  and  _388
REMARK  162  A    between atoms: _388  and  _389
REMARK  163  A    between atoms: _391  and  _393
REMARK  164  A    between atoms: _393  and  _394
REMARK  165  A    between atoms: _393  and  _396
REMARK  166  A    between atoms: _396  and  _397
REMARK  167  A    between atoms: _400  and  _402
REMARK  168  A    between atoms: _402  and  _403
REMARK  169  A    between atoms: _405  and  _407
REMARK  170  A    between atoms: _407  and  _408
REMARK  171  A    between atoms: _410  and  _412
REMARK  172  A    between atoms: _412  and  _413
REMARK  173  A    between atoms: _412  and  _415
REMARK  174  A    between atoms: _415  and  _416
REMARK  175  A    between atoms: _422  and  _424
REMARK  176  A    between atoms: _424  and  _425
REMARK  177  A    between atoms: _424  and  _427
REMARK  178  A    between atoms: _427  and  _428
REMARK  179  A    between atoms: _431  and  _433
REMARK  180  A    between atoms: _433  and  _434
REMARK  181  A    between atoms: _433  and  _436
REMARK  182  A    between atoms: _439  and  _441
REMARK  183  A    between atoms: _441  and  _442
REMARK  184  A    between atoms: _441  and  _444
REMARK  185  A    between atoms: _444  and  _445
REMARK  186  A    between atoms: _448  and  _450
REMARK  187  A    between atoms: _450  and  _451
REMARK  188  A    between atoms: _450  and  _453
REMARK  189  A    between atoms: _453  and  _454
REMARK  190  A    between atoms: _458  and  _459
REMARK  191  A    between atoms: _464  and  _466
REMARK  192  A    between atoms: _466  and  _467
REMARK  193  A    between atoms: _466  and  _469
REMARK  194  A    between atoms: _472  and  _474
REMARK  195  A    between atoms: _474  and  _475
REMARK  196  A    between atoms: _474  and  _477
REMARK  197  A    between atoms: _477  and  _478
REMARK  198  A    between atoms: _483  and  _485
REMARK  199  A    between atoms: _485  and  _486
REMARK  200  A    between atoms: _485  and  _488
REMARK  201  A    between atoms: _488  and  _489
REMARK  202  A    between atoms: _492  and  _494
REMARK  203  A    between atoms: _494  and  _495
REMARK  204  A    between atoms: _494  and  _497
REMARK  205  A    between atoms: _497  and  _498
REMARK  206  A    between atoms: _501  and  _503
REMARK  207  A    between atoms: _503  and  _504
REMARK  208  A    between atoms: _506  and  _508
REMARK  209  A    between atoms: _508  and  _509
REMARK  210  A    between atoms: _508  and  _511
REMARK  211  A    between atoms: _511  and  _512
REMARK  212  A    between atoms: _512  and  _513
REMARK  213  A    between atoms: _513  and  _514
REMARK  214  A    between atoms: _523  and  _525
REMARK  215  A    between atoms: _525  and  _526
REMARK  216  A    between atoms: _525  and  _528
REMARK  217  A    between atoms: _528  and  _529
REMARK                            x       y       z     vdW  Elec       q    Type
REMARK                         _______ _______ _______ _____ _____    ______ ____
ROOT
ATOM      1  O   HOH     1      19.622  22.768  13.186  0.00  0.00    +0.000 OA
ENDROOT
TORSDOF 0
REMARK  Name = ../refined-set-2016/3o99/3o99_pocket.pdb
REMARK  217 active torsions:
REMARK  status: ('A' for Active; 'I' for Inactive)
REMARK    1  A    between atoms: _1  and  _3
REMARK    2  A    between atoms: _3  and  _4
REMARK    3  A    between atoms: _3  and  _6
REMARK    4  A    between atoms: _6  and  _7
REMARK    5  A    between atoms: _7  and  _8
REMARK    6  A    between atoms: _8  and  _9
REMARK    7  A    between atoms: _18  and  _20
REMARK    8  A    between atoms: _20  and  _21
REMARK    9  A    between atoms: _20  and  _23
REMARK   10  A    between atoms: _23  and  _24
REMARK   11  A    between atoms: _27  and  _29
REMARK   12  A    between atoms: _29  and  _30
REMARK   13  A    between atoms: _29  and  _32
REMARK   14  A    between atoms: _32  and  _33
REMARK   15  A    between atoms: _36  and  _38
REMARK   16  A    between atoms: _38  and  _39
REMARK   17  A    between atoms: _38  and  _41
REMARK   18  A    between atoms: _41  and  _42
REMARK   19  A    between atoms: _45  and  _47
REMARK   20  A    between atoms: _47  and  _48
REMARK   21  A    between atoms: _47  and  _50
REMARK   22  A    between atoms: _50  and  _51
REMARK   23  A    between atoms: _54  and  _56
REMARK   24  A    between atoms: _56  and  _57
REMARK   25  A    between atoms: _59  and  _61
REMARK   26  A    between atoms: _61  and  _62
REMARK   27  A    between atoms: _65  and  _67
REMARK   28  A    between atoms: _67  and  _68
REMARK   29  A    between atoms: _67  and  _70
REMARK   30  A    between atoms: _70  and  _71
REMARK   31  A    between atoms: _74  and  _76
REMARK   32  A    between atoms: _76  and  _77
REMARK   33  A    between atoms: _76  and  _79
REMARK   34  A    between atoms: _79  and  _80
REMARK   35  A    between atoms: _83  and  _85
REMARK   36  A    between atoms: _85  and  _86
REMARK   37  A    between atoms: _85  and  _88
REMARK   38  A    between atoms: _88  and  _89
REMARK   39  A    between atoms: _92  and  _94
REMARK   40  A    between atoms: _94  and  _95
REMARK   41  A    between atoms: _94  and  _97
REMARK   42  A    between atoms: _100  and  _102
REMARK   43  A    between atoms: _102  and  _103
REMARK   44  A    between atoms: _102  and  _105
REMARK   45  A    between atoms: _105  and  _106
REMARK   46  A    between atoms: _109  and  _111
REMARK   47  A    between atoms: _111  and  _112
REMARK   48  A    between atoms: _114  and  _116
REMARK   49  A    between atoms: _116  and  _117
REMARK   50  A    between atoms: _119  and  _121
REMARK   51  A    between atoms: _121  and  _122
REMARK   52  A    between atoms: _121  and  _124
REMARK   53  A    between atoms: _124  and  _125
REMARK   54  A    between atoms: _128  and  _130
REMARK   55  A    between atoms: _130  and  _131
REMARK   56  A    between atoms: _133  and  _135
REMARK   57  A    between atoms: _135  and  _136
REMARK   58  A    between atoms: _138  and  _140
REMARK   59  A    between atoms: _140  and  _141
REMARK   60  A    between atoms: _140  and  _143
REMARK   61  A    between atoms: _143  and  _144
REMARK   62  A    between atoms: _147  and  _149
REMARK   63  A    between atoms: _149  and  _150
REMARK   64  A    between atoms: _149  and  _152
REMARK   65  A    between atoms: _152  and  _153
REMARK   66  A    between atoms: _156  and  _158
REMARK   67  A    between atoms: _158  and  _159
REMARK   68  A    between atoms: _158  and  _161
REMARK   69  A    between atoms: _161  and  _162
REMARK   70  A    between atoms: _166  and  _167
REMARK   71  A    between atoms: _172  and  _174
REMARK   72  A    between atoms: _174  and  _175
REMARK   73  A    between atoms: _174  and  _177
REMARK   74  A    between atoms: _180  and  _182
REMARK   75  A    between atoms: _182  and  _183
REMARK   76  A    between atoms: _182  and  _185
REMARK   77  A    between atoms: _185  and  _186
REMARK   78  A    between atoms: _191  and  _193
REMARK   79  A    between atoms: _193  and  _194
REMARK   80  A    between atoms: _193  and  _196
REMARK   81  A    between atoms: _196  and  _197
REMARK   82  A    between atoms: _200  and  _202
REMARK   83  A    between atoms: _202  and  _203
REMARK   84  A    between atoms: _202  and  _205
REMARK   85  A    between atoms: _205  and  _206
REMARK   86  A    between atoms: _209  and  _211
REMARK   87  A    between atoms: _211  and  _212
REMARK   88  A    between atoms: _214  and  _216
REMARK   89  A    between atoms: _216  and  _217
REMARK   90  A    between atoms: _216  and  _219
REMARK   91  A    between atoms: _219  and  _220
REMARK   92  A    between atoms: _220  and  _221
REMARK   93  A    between atoms: _221  and  _222
REMARK   94  A    between atoms: _231  and  _233
REMARK   95  A    between atoms: _233  and  _234
REMARK   96  A    between atoms: _233  and  _236
REMARK   97  A    between atoms: _236  and  _237
REMARK   98  A    between atoms: _242  and  _244
REMARK   99  A    between atoms: _244  and  _245
REMARK  100  A    between atoms: _244  and  _247
REMARK  101  A    between atoms: _247  and  _248
REMARK  102  A    between atoms: _248  and  _249
REMARK  103  A    between atoms: _249  and  _250
REMARK  104  A    between atoms: _259  and  _261
REMARK  105  A    between atoms: _261  and  _262
REMARK  106  A    between atoms: _261  and  _264
REMARK  107  A    between atoms: _264  and  _265
REMARK  108  A    between atoms: _268  and  _270
REMARK  109  A    between atoms: _270  and  _271
REMARK  110  A    between atoms: _270  and  _273
REMARK  111  A    between atoms: _273  and  _274
REMARK  112  A    between atoms: _277  and  _279
REMARK  113  A    between atoms: _279  and  _280
REMARK  114  A    between atoms: _279  and  _282
REMARK  115  A    between atoms: _282  and  _283
REMARK  116  A    between atoms: _286  and  _288
REMARK  117  A    between atoms: _288  and  _289
REMARK  118  A    between atoms: _288  and  _291
REMARK  119  A    between atoms: _291  and  _292
REMARK  120  A    between atoms: _295  and  _297
REMARK  121  A    between atoms: _297  and  _298
REMARK  122  A    between atoms: _300  and  _302
REMARK  123  A    between atoms: _302  and  _303
REMARK  124  A    between atoms: _306  and  _308
REMARK  125  A    between atoms: _308  and  _309
REMARK  126  A    between atoms: _308  and  _311
REMARK  127  A    between atoms: _311  and  _312
REMARK  128  A    between atoms: _315  and  _317
REMARK  129  A    between atoms: _317  and  _318
REMARK  130  A    between atoms: _317  and  _320
REMARK  131  A    between atoms: _320  and  _321
REMARK  132  A    between atoms: _324  and  _326
REMARK  133  A    between atoms: _326  and  _327
REMARK  134  A    between atoms: _326  and  _329
REMARK  135  A    between atoms: _329  and  _330
REMARK  136  A    between atoms: _333  and  _335
REMARK  137  A    between atoms: _335  and  _336
REMARK  138  A    between atoms: _335  and  _338
REMARK  139  A    between atoms: _341  and  _343
REMARK  140  A    between atoms: _343  and  _344
REMARK  141  A    between atoms: _343  and  _346
REMARK  142  A    between atoms: _346  and  _347
REMARK  143  A    between atoms: _350  and  _352
REMARK  144  A    between atoms: _352  and  _353
REMARK  145  A    between atoms: _352  and  _355
REMARK  146  A    between atoms: _355  and  _356
REMARK  147  A    between atoms: _356  and  _357
REMARK  148  A    between atoms: _357  and  _358
REMARK  149  A    between atoms: _358  and  _359
REMARK  150  A    between atoms: _363  and  _365
REMARK  151  A    between atoms: _365  and  _366
REMARK  152  A    between atoms: _365  and  _368
REMARK  153  A    between atoms: _368  and  _369
REMARK  154  A    between atoms: _369  and  _370
REMARK  155  A    between atoms: _372  and  _374
REMARK  156  A    between atoms: _374  and  _375
REMARK  157  A    between atoms: _374  and  _377
REMARK  158  A    between atoms: _377  and  _378
REMARK  159  A    between atoms: _381  and  _383
REMARK  160  A    between atoms: _383  and  _384
REMARK  161  A    between atoms: _386  and  _388
REMARK  162  A    between atoms: _388  and  _389
REMARK  163  A    between atoms: _391  and  _393
REMARK  164  A    between atoms: _393  and  _394
REMARK  165  A    between atoms: _393  and  _396
REMARK  166  A    between atoms: _396  and  _397
REMARK  167  A    between atoms: _400  and  _402
REMARK  168  A    between atoms: _402  and  _403
REMARK  169  A    between atoms: _405  and  _407
REMARK  170  A    between atoms: _407  and  _408
REMARK  171  A    between atoms: _410  and  _412
REMARK  172  A    between atoms: _412  and  _413
REMARK  173  A    between atoms: _412  and  _415
REMARK  174  A    between atoms: _415  and  _416
REMARK  175  A    between atoms: _422  and  _424
REMARK  176  A    between atoms: _424  and  _425
REMARK  177  A    between atoms: _424  and  _427
REMARK  178  A    between atoms: _427  and  _428
REMARK  179  A    between atoms: _431  and  _433
REMARK  180  A    between atoms: _433  and  _434
REMARK  181  A    between atoms: _433  and  _436
REMARK  182  A    between atoms: _439  and  _441
REMARK  183  A    between atoms: _441  and  _442
REMARK  184  A    between atoms: _441  and  _444
REMARK  185  A    between atoms: _444  and  _445
REMARK  186  A    between atoms: _448  and  _450
REMARK  187  A    between atoms: _450  and  _451
REMARK  188  A    between atoms: _450  and  _453
REMARK  189  A    between atoms: _453  and  _454
REMARK  190  A    between atoms: _458  and  _459
REMARK  191  A    between atoms: _464  and  _466
REMARK  192  A    between atoms: _466  and  _467
REMARK  193  A    between atoms: _466  and  _469
REMARK  194  A    between atoms: _472  and  _474
REMARK  195  A    between atoms: _474  and  _475
REMARK  196  A    between atoms: _474  and  _477
REMARK  197  A    between atoms: _477  and  _478
REMARK  198  A    between atoms: _483  and  _485
REMARK  199  A    between atoms: _485  and  _486
REMARK  200  A    between atoms: _485  and  _488
REMARK  201  A    between atoms: _488  and  _489
REMARK  202  A    between atoms: _492  and  _494
REMARK  203  A    between atoms: _494  and  _495
REMARK  204  A    between atoms: _494  and  _497
REMARK  205  A    between atoms: _497  and  _498
REMARK  206  A    between atoms: _501  and  _503
REMARK  207  A    between atoms: _503  and  _504
REMARK  208  A    between atoms: _506  and  _508
REMARK  209  A    between atoms: _508  and  _509
REMARK  210  A    between atoms: _508  and  _511
REMARK  211  A    between atoms: _511  and  _512
REMARK  212  A    between atoms: _512  and  _513
REMARK  213  A    between atoms: _513  and  _514
REMARK  214  A    between atoms: _523  and  _525
REMARK  215  A    between atoms: _525  and  _526
REMARK  216  A    between atoms: _525  and  _528
REMARK  217  A    between atoms: _528  and  _529
REMARK                            x       y       z     vdW  Elec       q    Type
REMARK                         _______ _______ _______ _____ _____    ______ ____
ROOT
ATOM      1  O   HOH     1      31.101  23.603  12.117  0.00  0.00    +0.000 OA
ENDROOT
TORSDOF 0
REMARK  Name = ../refined-set-2016/3o99/3o99_pocket.pdb
REMARK  217 active torsions:
REMARK  status: ('A' for Active; 'I' for Inactive)
REMARK    1  A    between atoms: _1  and  _3
REMARK    2  A    between atoms: _3  and  _4
REMARK    3  A    between atoms: _3  and  _6
REMARK    4  A    between atoms: _6  and  _7
REMARK    5  A    between atoms: _7  and  _8
REMARK    6  A    between atoms: _8  and  _9
REMARK    7  A    between atoms: _18  and  _20
REMARK    8  A    between atoms: _20  and  _21
REMARK    9  A    between atoms: _20  and  _23
REMARK   10  A    between atoms: _23  and  _24
REMARK   11  A    between atoms: _27  and  _29
REMARK   12  A    between atoms: _29  and  _30
REMARK   13  A    between atoms: _29  and  _32
REMARK   14  A    between atoms: _32  and  _33
REMARK   15  A    between atoms: _36  and  _38
REMARK   16  A    between atoms: _38  and  _39
REMARK   17  A    between atoms: _38  and  _41
REMARK   18  A    between atoms: _41  and  _42
REMARK   19  A    between atoms: _45  and  _47
REMARK   20  A    between atoms: _47  and  _48
REMARK   21  A    between atoms: _47  and  _50
REMARK   22  A    between atoms: _50  and  _51
REMARK   23  A    between atoms: _54  and  _56
REMARK   24  A    between atoms: _56  and  _57
REMARK   25  A    between atoms: _59  and  _61
REMARK   26  A    between atoms: _61  and  _62
REMARK   27  A    between atoms: _65  and  _67
REMARK   28  A    between atoms: _67  and  _68
REMARK   29  A    between atoms: _67  and  _70
REMARK   30  A    between atoms: _70  and  _71
REMARK   31  A    between atoms: _74  and  _76
REMARK   32  A    between atoms: _76  and  _77
REMARK   33  A    between atoms: _76  and  _79
REMARK   34  A    between atoms: _79  and  _80
REMARK   35  A    between atoms: _83  and  _85
REMARK   36  A    between atoms: _85  and  _86
REMARK   37  A    between atoms: _85  and  _88
REMARK   38  A    between atoms: _88  and  _89
REMARK   39  A    between atoms: _92  and  _94
REMARK   40  A    between atoms: _94  and  _95
REMARK   41  A    between atoms: _94  and  _97
REMARK   42  A    between atoms: _100  and  _102
REMARK   43  A    between atoms: _102  and  _103
REMARK   44  A    between atoms: _102  and  _105
REMARK   45  A    between atoms: _105  and  _106
REMARK   46  A    between atoms: _109  and  _111
REMARK   47  A    between atoms: _111  and  _112
REMARK   48  A    between atoms: _114  and  _116
REMARK   49  A    between atoms: _116  and  _117
REMARK   50  A    between atoms: _119  and  _121
REMARK   51  A    between atoms: _121  and  _122
REMARK   52  A    between atoms: _121  and  _124
REMARK   53  A    between atoms: _124  and  _125
REMARK   54  A    between atoms: _128  and  _130
REMARK   55  A    between atoms: _130  and  _131
REMARK   56  A    between atoms: _133  and  _135
REMARK   57  A    between atoms: _135  and  _136
REMARK   58  A    between atoms: _138  and  _140
REMARK   59  A    between atoms: _140  and  _141
REMARK   60  A    between atoms: _140  and  _143
REMARK   61  A    between atoms: _143  and  _144
REMARK   62  A    between atoms: _147  and  _149
REMARK   63  A    between atoms: _149  and  _150
REMARK   64  A    between atoms: _149  and  _152
REMARK   65  A    between atoms: _152  and  _153
REMARK   66  A    between atoms: _156  and  _158
REMARK   67  A    between atoms: _158  and  _159
REMARK   68  A    between atoms: _158  and  _161
REMARK   69  A    between atoms: _161  and  _162
REMARK   70  A    between atoms: _166  and  _167
REMARK   71  A    between atoms: _172  and  _174
REMARK   72  A    between atoms: _174  and  _175
REMARK   73  A    between atoms: _174  and  _177
REMARK   74  A    between atoms: _180  and  _182
REMARK   75  A    between atoms: _182  and  _183
REMARK   76  A    between atoms: _182  and  _185
REMARK   77  A    between atoms: _185  and  _186
REMARK   78  A    between atoms: _191  and  _193
REMARK   79  A    between atoms: _193  and  _194
REMARK   80  A    between atoms: _193  and  _196
REMARK   81  A    between atoms: _196  and  _197
REMARK   82  A    between atoms: _200  and  _202
REMARK   83  A    between atoms: _202  and  _203
REMARK   84  A    between atoms: _202  and  _205
REMARK   85  A    between atoms: _205  and  _206
REMARK   86  A    between atoms: _209  and  _211
REMARK   87  A    between atoms: _211  and  _212
REMARK   88  A    between atoms: _214  and  _216
REMARK   89  A    between atoms: _216  and  _217
REMARK   90  A    between atoms: _216  and  _219
REMARK   91  A    between atoms: _219  and  _220
REMARK   92  A    between atoms: _220  and  _221
REMARK   93  A    between atoms: _221  and  _222
REMARK   94  A    between atoms: _231  and  _233
REMARK   95  A    between atoms: _233  and  _234
REMARK   96  A    between atoms: _233  and  _236
REMARK   97  A    between atoms: _236  and  _237
REMARK   98  A    between atoms: _242  and  _244
REMARK   99  A    between atoms: _244  and  _245
REMARK  100  A    between atoms: _244  and  _247
REMARK  101  A    between atoms: _247  and  _248
REMARK  102  A    between atoms: _248  and  _249
REMARK  103  A    between atoms: _249  and  _250
REMARK  104  A    between atoms: _259  and  _261
REMARK  105  A    between atoms: _261  and  _262
REMARK  106  A    between atoms: _261  and  _264
REMARK  107  A    between atoms: _264  and  _265
REMARK  108  A    between atoms: _268  and  _270
REMARK  109  A    between atoms: _270  and  _271
REMARK  110  A    between atoms: _270  and  _273
REMARK  111  A    between atoms: _273  and  _274
REMARK  112  A    between atoms: _277  and  _279
REMARK  113  A    between atoms: _279  and  _280
REMARK  114  A    between atoms: _279  and  _282
REMARK  115  A    between atoms: _282  and  _283
REMARK  116  A    between atoms: _286  and  _288
REMARK  117  A    between atoms: _288  and  _289
REMARK  118  A    between atoms: _288  and  _291
REMARK  119  A    between atoms: _291  and  _292
REMARK  120  A    between atoms: _295  and  _297
REMARK  121  A    between atoms: _297  and  _298
REMARK  122  A    between atoms: _300  and  _302
REMARK  123  A    between atoms: _302  and  _303
REMARK  124  A    between atoms: _306  and  _308
REMARK  125  A    between atoms: _308  and  _309
REMARK  126  A    between atoms: _308  and  _311
REMARK  127  A    between atoms: _311  and  _312
REMARK  128  A    between atoms: _315  and  _317
REMARK  129  A    between atoms: _317  and  _318
REMARK  130  A    between atoms: _317  and  _320
REMARK  131  A    between atoms: _320  and  _321
REMARK  132  A    between atoms: _324  and  _326
REMARK  133  A    between atoms: _326  and  _327
REMARK  134  A    between atoms: _326  and  _329
REMARK  135  A    between atoms: _329  and  _330
REMARK  136  A    between atoms: _333  and  _335
REMARK  137  A    between atoms: _335  and  _336
REMARK  138  A    between atoms: _335  and  _338
REMARK  139  A    between atoms: _341  and  _343
REMARK  140  A    between atoms: _343  and  _344
REMARK  141  A    between atoms: _343  and  _346
REMARK  142  A    between atoms: _346  and  _347
REMARK  143  A    between atoms: _350  and  _352
REMARK  144  A    between atoms: _352  and  _353
REMARK  145  A    between atoms: _352  and  _355
REMARK  146  A    between atoms: _355  and  _356
REMARK  147  A    between atoms: _356  and  _357
REMARK  148  A    between atoms: _357  and  _358
REMARK  149  A    between atoms: _358  and  _359
REMARK  150  A    between atoms: _363  and  _365
REMARK  151  A    between atoms: _365  and  _366
REMARK  152  A    between atoms: _365  and  _368
REMARK  153  A    between atoms: _368  and  _369
REMARK  154  A    between atoms: _369  and  _370
REMARK  155  A    between atoms: _372  and  _374
REMARK  156  A    between atoms: _374  and  _375
REMARK  157  A    between atoms: _374  and  _377
REMARK  158  A    between atoms: _377  and  _378
REMARK  159  A    between atoms: _381  and  _383
REMARK  160  A    between atoms: _383  and  _384
REMARK  161  A    between atoms: _386  and  _388
REMARK  162  A    between atoms: _388  and  _389
REMARK  163  A    between atoms: _391  and  _393
REMARK  164  A    between atoms: _393  and  _394
REMARK  165  A    between atoms: _393  and  _396
REMARK  166  A    between atoms: _396  and  _397
REMARK  167  A    between atoms: _400  and  _402
REMARK  168  A    between atoms: _402  and  _403
REMARK  169  A    between atoms: _405  and  _407
REMARK  170  A    between atoms: _407  and  _408
REMARK  171  A    between atoms: _410  and  _412
REMARK  172  A    between atoms: _412  and  _413
REMARK  173  A    between atoms: _412  and  _415
REMARK  174  A    between atoms: _415  and  _416
REMARK  175  A    between atoms: _422  and  _424
REMARK  176  A    between atoms: _424  and  _425
REMARK  177  A    between atoms: _424  and  _427
REMARK  178  A    between atoms: _427  and  _428
REMARK  179  A    between atoms: _431  and  _433
REMARK  180  A    between atoms: _433  and  _434
REMARK  181  A    between atoms: _433  and  _436
REMARK  182  A    between atoms: _439  and  _441
REMARK  183  A    between atoms: _441  and  _442
REMARK  184  A    between atoms: _441  and  _444
REMARK  185  A    between atoms: _444  and  _445
REMARK  186  A    between atoms: _448  and  _450
REMARK  187  A    between atoms: _450  and  _451
REMARK  188  A    between atoms: _450  and  _453
REMARK  189  A    between atoms: _453  and  _454
REMARK  190  A    between atoms: _458  and  _459
REMARK  191  A    between atoms: _464  and  _466
REMARK  192  A    between atoms: _466  and  _467
REMARK  193  A    between atoms: _466  and  _469
REMARK  194  A    between atoms: _472  and  _474
REMARK  195  A    between atoms: _474  and  _475
REMARK  196  A    between atoms: _474  and  _477
REMARK  197  A    between atoms: _477  and  _478
REMARK  198  A    between atoms: _483  and  _485
REMARK  199  A    between atoms: _485  and  _486
REMARK  200  A    between atoms: _485  and  _488
REMARK  201  A    between atoms: _488  and  _489
REMARK  202  A    between atoms: _492  and  _494
REMARK  203  A    between atoms: _494  and  _495
REMARK  204  A    between atoms: _494  and  _497
REMARK  205  A    between atoms: _497  and  _498
REMARK  206  A    between atoms: _501  and  _503
REMARK  207  A    between atoms: _503  and  _504
REMARK  208  A    between atoms: _506  and  _508
REMARK  209  A    between atoms: _508  and  _509
REMARK  210  A    between atoms: _508  and  _511
REMARK  211  A    between atoms: _511  and  _512
REMARK  212  A    between atoms: _512  and  _513
REMARK  213  A    between atoms: _513  and  _514
REMARK  214  A    between atoms: _523  and  _525
REMARK  215  A    between atoms: _525  and  _526
REMARK  216  A    between atoms: _525  and  _528
REMARK  217  A    between atoms: _528  and  _529
REMARK                            x       y       z     vdW  Elec       q    Type
REMARK                         _______ _______ _______ _____ _____    ______ ____
ROOT
ATOM      1  O   HOH     1      20.269  31.932  11.831  0.00  0.00    +0.000 OA
ENDROOT
TORSDOF 0
REMARK  Name = ../refined-set-2016/3o99/3o99_pocket.pdb
REMARK  217 active torsions:
REMARK  status: ('A' for Active; 'I' for Inactive)
REMARK    1  A    between atoms: _1  and  _3
REMARK    2  A    between atoms: _3  and  _4
REMARK    3  A    between atoms: _3  and  _6
REMARK    4  A    between atoms: _6  and  _7
REMARK    5  A    between atoms: _7  and  _8
REMARK    6  A    between atoms: _8  and  _9
REMARK    7  A    between atoms: _18  and  _20
REMARK    8  A    between atoms: _20  and  _21
REMARK    9  A    between atoms: _20  and  _23
REMARK   10  A    between atoms: _23  and  _24
REMARK   11  A    between atoms: _27  and  _29
REMARK   12  A    between atoms: _29  and  _30
REMARK   13  A    between atoms: _29  and  _32
REMARK   14  A    between atoms: _32  and  _33
REMARK   15  A    between atoms: _36  and  _38
REMARK   16  A    between atoms: _38  and  _39
REMARK   17  A    between atoms: _38  and  _41
REMARK   18  A    between atoms: _41  and  _42
REMARK   19  A    between atoms: _45  and  _47
REMARK   20  A    between atoms: _47  and  _48
REMARK   21  A    between atoms: _47  and  _50
REMARK   22  A    between atoms: _50  and  _51
REMARK   23  A    between atoms: _54  and  _56
REMARK   24  A    between atoms: _56  and  _57
REMARK   25  A    between atoms: _59  and  _61
REMARK   26  A    between atoms: _61  and  _62
REMARK   27  A    between atoms: _65  and  _67
REMARK   28  A    between atoms: _67  and  _68
REMARK   29  A    between atoms: _67  and  _70
REMARK   30  A    between atoms: _70  and  _71
REMARK   31  A    between atoms: _74  and  _76
REMARK   32  A    between atoms: _76  and  _77
REMARK   33  A    between atoms: _76  and  _79
REMARK   34  A    between atoms: _79  and  _80
REMARK   35  A    between atoms: _83  and  _85
REMARK   36  A    between atoms: _85  and  _86
REMARK   37  A    between atoms: _85  and  _88
REMARK   38  A    between atoms: _88  and  _89
REMARK   39  A    between atoms: _92  and  _94
REMARK   40  A    between atoms: _94  and  _95
REMARK   41  A    between atoms: _94  and  _97
REMARK   42  A    between atoms: _100  and  _102
REMARK   43  A    between atoms: _102  and  _103
REMARK   44  A    between atoms: _102  and  _105
REMARK   45  A    between atoms: _105  and  _106
REMARK   46  A    between atoms: _109  and  _111
REMARK   47  A    between atoms: _111  and  _112
REMARK   48  A    between atoms: _114  and  _116
REMARK   49  A    between atoms: _116  and  _117
REMARK   50  A    between atoms: _119  and  _121
REMARK   51  A    between atoms: _121  and  _122
REMARK   52  A    between atoms: _121  and  _124
REMARK   53  A    between atoms: _124  and  _125
REMARK   54  A    between atoms: _128  and  _130
REMARK   55  A    between atoms: _130  and  _131
REMARK   56  A    between atoms: _133  and  _135
REMARK   57  A    between atoms: _135  and  _136
REMARK   58  A    between atoms: _138  and  _140
REMARK   59  A    between atoms: _140  and  _141
REMARK   60  A    between atoms: _140  and  _143
REMARK   61  A    between atoms: _143  and  _144
REMARK   62  A    between atoms: _147  and  _149
REMARK   63  A    between atoms: _149  and  _150
REMARK   64  A    between atoms: _149  and  _152
REMARK   65  A    between atoms: _152  and  _153
REMARK   66  A    between atoms: _156  and  _158
REMARK   67  A    between atoms: _158  and  _159
REMARK   68  A    between atoms: _158  and  _161
REMARK   69  A    between atoms: _161  and  _162
REMARK   70  A    between atoms: _166  and  _167
REMARK   71  A    between atoms: _172  and  _174
REMARK   72  A    between atoms: _174  and  _175
REMARK   73  A    between atoms: _174  and  _177
REMARK   74  A    between atoms: _180  and  _182
REMARK   75  A    between atoms: _182  and  _183
REMARK   76  A    between atoms: _182  and  _185
REMARK   77  A    between atoms: _185  and  _186
REMARK   78  A    between atoms: _191  and  _193
REMARK   79  A    between atoms: _193  and  _194
REMARK   80  A    between atoms: _193  and  _196
REMARK   81  A    between atoms: _196  and  _197
REMARK   82  A    between atoms: _200  and  _202
REMARK   83  A    between atoms: _202  and  _203
REMARK   84  A    between atoms: _202  and  _205
REMARK   85  A    between atoms: _205  and  _206
REMARK   86  A    between atoms: _209  and  _211
REMARK   87  A    between atoms: _211  and  _212
REMARK   88  A    between atoms: _214  and  _216
REMARK   89  A    between atoms: _216  and  _217
REMARK   90  A    between atoms: _216  and  _219
REMARK   91  A    between atoms: _219  and  _220
REMARK   92  A    between atoms: _220  and  _221
REMARK   93  A    between atoms: _221  and  _222
REMARK   94  A    between atoms: _231  and  _233
REMARK   95  A    between atoms: _233  and  _234
REMARK   96  A    between atoms: _233  and  _236
REMARK   97  A    between atoms: _236  and  _237
REMARK   98  A    between atoms: _242  and  _244
REMARK   99  A    between atoms: _244  and  _245
REMARK  100  A    between atoms: _244  and  _247
REMARK  101  A    between atoms: _247  and  _248
REMARK  102  A    between atoms: _248  and  _249
REMARK  103  A    between atoms: _249  and  _250
REMARK  104  A    between atoms: _259  and  _261
REMARK  105  A    between atoms: _261  and  _262
REMARK  106  A    between atoms: _261  and  _264
REMARK  107  A    between atoms: _264  and  _265
REMARK  108  A    between atoms: _268  and  _270
REMARK  109  A    between atoms: _270  and  _271
REMARK  110  A    between atoms: _270  and  _273
REMARK  111  A    between atoms: _273  and  _274
REMARK  112  A    between atoms: _277  and  _279
REMARK  113  A    between atoms: _279  and  _280
REMARK  114  A    between atoms: _279  and  _282
REMARK  115  A    between atoms: _282  and  _283
REMARK  116  A    between atoms: _286  and  _288
REMARK  117  A    between atoms: _288  and  _289
REMARK  118  A    between atoms: _288  and  _291
REMARK  119  A    between atoms: _291  and  _292
REMARK  120  A    between atoms: _295  and  _297
REMARK  121  A    between atoms: _297  and  _298
REMARK  122  A    between atoms: _300  and  _302
REMARK  123  A    between atoms: _302  and  _303
REMARK  124  A    between atoms: _306  and  _308
REMARK  125  A    between atoms: _308  and  _309
REMARK  126  A    between atoms: _308  and  _311
REMARK  127  A    between atoms: _311  and  _312
REMARK  128  A    between atoms: _315  and  _317
REMARK  129  A    between atoms: _317  and  _318
REMARK  130  A    between atoms: _317  and  _320
REMARK  131  A    between atoms: _320  and  _321
REMARK  132  A    between atoms: _324  and  _326
REMARK  133  A    between atoms: _326  and  _327
REMARK  134  A    between atoms: _326  and  _329
REMARK  135  A    between atoms: _329  and  _330
REMARK  136  A    between atoms: _333  and  _335
REMARK  137  A    between atoms: _335  and  _336
REMARK  138  A    between atoms: _335  and  _338
REMARK  139  A    between atoms: _341  and  _343
REMARK  140  A    between atoms: _343  and  _344
REMARK  141  A    between atoms: _343  and  _346
REMARK  142  A    between atoms: _346  and  _347
REMARK  143  A    between atoms: _350  and  _352
REMARK  144  A    between atoms: _352  and  _353
REMARK  145  A    between atoms: _352  and  _355
REMARK  146  A    between atoms: _355  and  _356
REMARK  147  A    between atoms: _356  and  _357
REMARK  148  A    between atoms: _357  and  _358
REMARK  149  A    between atoms: _358  and  _359
REMARK  150  A    between atoms: _363  and  _365
REMARK  151  A    between atoms: _365  and  _366
REMARK  152  A    between atoms: _365  and  _368
REMARK  153  A    between atoms: _368  and  _369
REMARK  154  A    between atoms: _369  and  _370
REMARK  155  A    between atoms: _372  and  _374
REMARK  156  A    between atoms: _374  and  _375
REMARK  157  A    between atoms: _374  and  _377
REMARK  158  A    between atoms: _377  and  _378
REMARK  159  A    between atoms: _381  and  _383
REMARK  160  A    between atoms: _383  and  _384
REMARK  161  A    between atoms: _386  and  _388
REMARK  162  A    between atoms: _388  and  _389
REMARK  163  A    between atoms: _391  and  _393
REMARK  164  A    between atoms: _393  and  _394
REMARK  165  A    between atoms: _393  and  _396
REMARK  166  A    between atoms: _396  and  _397
REMARK  167  A    between atoms: _400  and  _402
REMARK  168  A    between atoms: _402  and  _403
REMARK  169  A    between atoms: _405  and  _407
REMARK  170  A    between atoms: _407  and  _408
REMARK  171  A    between atoms: _410  and  _412
REMARK  172  A    between atoms: _412  and  _413
REMARK  173  A    between atoms: _412  and  _415
REMARK  174  A    between atoms: _415  and  _416
REMARK  175  A    between atoms: _422  and  _424
REMARK  176  A    between atoms: _424  and  _425
REMARK  177  A    between atoms: _424  and  _427
REMARK  178  A    between atoms: _427  and  _428
REMARK  179  A    between atoms: _431  and  _433
REMARK  180  A    between atoms: _433  and  _434
REMARK  181  A    between atoms: _433  and  _436
REMARK  182  A    between atoms: _439  and  _441
REMARK  183  A    between atoms: _441  and  _442
REMARK  184  A    between atoms: _441  and  _444
REMARK  185  A    between atoms: _444  and  _445
REMARK  186  A    between atoms: _448  and  _450
REMARK  187  A    between atoms: _450  and  _451
REMARK  188  A    between atoms: _450  and  _453
REMARK  189  A    between atoms: _453  and  _454
REMARK  190  A    between atoms: _458  and  _459
REMARK  191  A    between atoms: _464  and  _466
REMARK  192  A    between atoms: _466  and  _467
REMARK  193  A    between atoms: _466  and  _469
REMARK  194  A    between atoms: _472  and  _474
REMARK  195  A    between atoms: _474  and  _475
REMARK  196  A    between atoms: _474  and  _477
REMARK  197  A    between atoms: _477  and  _478
REMARK  198  A    between atoms: _483  and  _485
REMARK  199  A    between atoms: _485  and  _486
REMARK  200  A    between atoms: _485  and  _488
REMARK  201  A    between atoms: _488  and  _489
REMARK  202  A    between atoms: _492  and  _494
REMARK  203  A    between atoms: _494  and  _495
REMARK  204  A    between atoms: _494  and  _497
REMARK  205  A    between atoms: _497  and  _498
REMARK  206  A    between atoms: _501  and  _503
REMARK  207  A    between atoms: _503  and  _504
REMARK  208  A    between atoms: _506  and  _508
REMARK  209  A    between atoms: _508  and  _509
REMARK  210  A    between atoms: _508  and  _511
REMARK  211  A    between atoms: _511  and  _512
REMARK  212  A    between atoms: _512  and  _513
REMARK  213  A    between atoms: _513  and  _514
REMARK  214  A    between atoms: _523  and  _525
REMARK  215  A    between atoms: _525  and  _526
REMARK  216  A    between atoms: _525  and  _528
REMARK  217  A    between atoms: _528  and  _529
REMARK                            x       y       z     vdW  Elec       q    Type
REMARK                         _______ _______ _______ _____ _____    ______ ____
ROOT
ATOM      1  O   HOH     1      26.156  18.513  13.417  0.00  0.00    +0.000 OA
ENDROOT
TORSDOF 0
REMARK  Name = ../refined-set-2016/3o99/3o99_pocket.pdb
REMARK  217 active torsions:
REMARK  status: ('A' for Active; 'I' for Inactive)
REMARK    1  A    between atoms: _1  and  _3
REMARK    2  A    between atoms: _3  and  _4
REMARK    3  A    between atoms: _3  and  _6
REMARK    4  A    between atoms: _6  and  _7
REMARK    5  A    between atoms: _7  and  _8
REMARK    6  A    between atoms: _8  and  _9
REMARK    7  A    between atoms: _18  and  _20
REMARK    8  A    between atoms: _20  and  _21
REMARK    9  A    between atoms: _20  and  _23
REMARK   10  A    between atoms: _23  and  _24
REMARK   11  A    between atoms: _27  and  _29
REMARK   12  A    between atoms: _29  and  _30
REMARK   13  A    between atoms: _29  and  _32
REMARK   14  A    between atoms: _32  and  _33
REMARK   15  A    between atoms: _36  and  _38
REMARK   16  A    between atoms: _38  and  _39
REMARK   17  A    between atoms: _38  and  _41
REMARK   18  A    between atoms: _41  and  _42
REMARK   19  A    between atoms: _45  and  _47
REMARK   20  A    between atoms: _47  and  _48
REMARK   21  A    between atoms: _47  and  _50
REMARK   22  A    between atoms: _50  and  _51
REMARK   23  A    between atoms: _54  and  _56
REMARK   24  A    between atoms: _56  and  _57
REMARK   25  A    between atoms: _59  and  _61
REMARK   26  A    between atoms: _61  and  _62
REMARK   27  A    between atoms: _65  and  _67
REMARK   28  A    between atoms: _67  and  _68
REMARK   29  A    between atoms: _67  and  _70
REMARK   30  A    between atoms: _70  and  _71
REMARK   31  A    between atoms: _74  and  _76
REMARK   32  A    between atoms: _76  and  _77
REMARK   33  A    between atoms: _76  and  _79
REMARK   34  A    between atoms: _79  and  _80
REMARK   35  A    between atoms: _83  and  _85
REMARK   36  A    between atoms: _85  and  _86
REMARK   37  A    between atoms: _85  and  _88
REMARK   38  A    between atoms: _88  and  _89
REMARK   39  A    between atoms: _92  and  _94
REMARK   40  A    between atoms: _94  and  _95
REMARK   41  A    between atoms: _94  and  _97
REMARK   42  A    between atoms: _100  and  _102
REMARK   43  A    between atoms: _102  and  _103
REMARK   44  A    between atoms: _102  and  _105
REMARK   45  A    between atoms: _105  and  _106
REMARK   46  A    between atoms: _109  and  _111
REMARK   47  A    between atoms: _111  and  _112
REMARK   48  A    between atoms: _114  and  _116
REMARK   49  A    between atoms: _116  and  _117
REMARK   50  A    between atoms: _119  and  _121
REMARK   51  A    between atoms: _121  and  _122
REMARK   52  A    between atoms: _121  and  _124
REMARK   53  A    between atoms: _124  and  _125
REMARK   54  A    between atoms: _128  and  _130
REMARK   55  A    between atoms: _130  and  _131
REMARK   56  A    between atoms: _133  and  _135
REMARK   57  A    between atoms: _135  and  _136
REMARK   58  A    between atoms: _138  and  _140
REMARK   59  A    between atoms: _140  and  _141
REMARK   60  A    between atoms: _140  and  _143
REMARK   61  A    between atoms: _143  and  _144
REMARK   62  A    between atoms: _147  and  _149
REMARK   63  A    between atoms: _149  and  _150
REMARK   64  A    between atoms: _149  and  _152
REMARK   65  A    between atoms: _152  and  _153
REMARK   66  A    between atoms: _156  and  _158
REMARK   67  A    between atoms: _158  and  _159
REMARK   68  A    between atoms: _158  and  _161
REMARK   69  A    between atoms: _161  and  _162
REMARK   70  A    between atoms: _166  and  _167
REMARK   71  A    between atoms: _172  and  _174
REMARK   72  A    between atoms: _174  and  _175
REMARK   73  A    between atoms: _174  and  _177
REMARK   74  A    between atoms: _180  and  _182
REMARK   75  A    between atoms: _182  and  _183
REMARK   76  A    between atoms: _182  and  _185
REMARK   77  A    between atoms: _185  and  _186
REMARK   78  A    between atoms: _191  and  _193
REMARK   79  A    between atoms: _193  and  _194
REMARK   80  A    between atoms: _193  and  _196
REMARK   81  A    between atoms: _196  and  _197
REMARK   82  A    between atoms: _200  and  _202
REMARK   83  A    between atoms: _202  and  _203
REMARK   84  A    between atoms: _202  and  _205
REMARK   85  A    between atoms: _205  and  _206
REMARK   86  A    between atoms: _209  and  _211
REMARK   87  A    between atoms: _211  and  _212
REMARK   88  A    between atoms: _214  and  _216
REMARK   89  A    between atoms: _216  and  _217
REMARK   90  A    between atoms: _216  and  _219
REMARK   91  A    between atoms: _219  and  _220
REMARK   92  A    between atoms: _220  and  _221
REMARK   93  A    between atoms: _221  and  _222
REMARK   94  A    between atoms: _231  and  _233
REMARK   95  A    between atoms: _233  and  _234
REMARK   96  A    between atoms: _233  and  _236
REMARK   97  A    between atoms: _236  and  _237
REMARK   98  A    between atoms: _242  and  _244
REMARK   99  A    between atoms: _244  and  _245
REMARK  100  A    between atoms: _244  and  _247
REMARK  101  A    between atoms: _247  and  _248
REMARK  102  A    between atoms: _248  and  _249
REMARK  103  A    between atoms: _249  and  _250
REMARK  104  A    between atoms: _259  and  _261
REMARK  105  A    between atoms: _261  and  _262
REMARK  106  A    between atoms: _261  and  _264
REMARK  107  A    between atoms: _264  and  _265
REMARK  108  A    between atoms: _268  and  _270
REMARK  109  A    between atoms: _270  and  _271
REMARK  110  A    between atoms: _270  and  _273
REMARK  111  A    between atoms: _273  and  _274
REMARK  112  A    between atoms: _277  and  _279
REMARK  113  A    between atoms: _279  and  _280
REMARK  114  A    between atoms: _279  and  _282
REMARK  115  A    between atoms: _282  and  _283
REMARK  116  A    between atoms: _286  and  _288
REMARK  117  A    between atoms: _288  and  _289
REMARK  118  A    between atoms: _288  and  _291
REMARK  119  A    between atoms: _291  and  _292
REMARK  120  A    between atoms: _295  and  _297
REMARK  121  A    between atoms: _297  and  _298
REMARK  122  A    between atoms: _300  and  _302
REMARK  123  A    between atoms: _302  and  _303
REMARK  124  A    between atoms: _306  and  _308
REMARK  125  A    between atoms: _308  and  _309
REMARK  126  A    between atoms: _308  and  _311
REMARK  127  A    between atoms: _311  and  _312
REMARK  128  A    between atoms: _315  and  _317
REMARK  129  A    between atoms: _317  and  _318
REMARK  130  A    between atoms: _317  and  _320
REMARK  131  A    between atoms: _320  and  _321
REMARK  132  A    between atoms: _324  and  _326
REMARK  133  A    between atoms: _326  and  _327
REMARK  134  A    between atoms: _326  and  _329
REMARK  135  A    between atoms: _329  and  _330
REMARK  136  A    between atoms: _333  and  _335
REMARK  137  A    between atoms: _335  and  _336
REMARK  138  A    between atoms: _335  and  _338
REMARK  139  A    between atoms: _341  and  _343
REMARK  140  A    between atoms: _343  and  _344
REMARK  141  A    between atoms: _343  and  _346
REMARK  142  A    between atoms: _346  and  _347
REMARK  143  A    between atoms: _350  and  _352
REMARK  144  A    between atoms: _352  and  _353
REMARK  145  A    between atoms: _352  and  _355
REMARK  146  A    between atoms: _355  and  _356
REMARK  147  A    between atoms: _356  and  _357
REMARK  148  A    between atoms: _357  and  _358
REMARK  149  A    between atoms: _358  and  _359
REMARK  150  A    between atoms: _363  and  _365
REMARK  151  A    between atoms: _365  and  _366
REMARK  152  A    between atoms: _365  and  _368
REMARK  153  A    between atoms: _368  and  _369
REMARK  154  A    between atoms: _369  and  _370
REMARK  155  A    between atoms: _372  and  _374
REMARK  156  A    between atoms: _374  and  _375
REMARK  157  A    between atoms: _374  and  _377
REMARK  158  A    between atoms: _377  and  _378
REMARK  159  A    between atoms: _381  and  _383
REMARK  160  A    between atoms: _383  and  _384
REMARK  161  A    between atoms: _386  and  _388
REMARK  162  A    between atoms: _388  and  _389
REMARK  163  A    between atoms: _391  and  _393
REMARK  164  A    between atoms: _393  and  _394
REMARK  165  A    between atoms: _393  and  _396
REMARK  166  A    between atoms: _396  and  _397
REMARK  167  A    between atoms: _400  and  _402
REMARK  168  A    between atoms: _402  and  _403
REMARK  169  A    between atoms: _405  and  _407
REMARK  170  A    between atoms: _407  and  _408
REMARK  171  A    between atoms: _410  and  _412
REMARK  172  A    between atoms: _412  and  _413
REMARK  173  A    between atoms: _412  and  _415
REMARK  174  A    between atoms: _415  and  _416
REMARK  175  A    between atoms: _422  and  _424
REMARK  176  A    between atoms: _424  and  _425
REMARK  177  A    between atoms: _424  and  _427
REMARK  178  A    between atoms: _427  and  _428
REMARK  179  A    between atoms: _431  and  _433
REMARK  180  A    between atoms: _433  and  _434
REMARK  181  A    between atoms: _433  and  _436
REMARK  182  A    between atoms: _439  and  _441
REMARK  183  A    between atoms: _441  and  _442
REMARK  184  A    between atoms: _441  and  _444
REMARK  185  A    between atoms: _444  and  _445
REMARK  186  A    between atoms: _448  and  _450
REMARK  187  A    between atoms: _450  and  _451
REMARK  188  A    between atoms: _450  and  _453
REMARK  189  A    between atoms: _453  and  _454
REMARK  190  A    between atoms: _458  and  _459
REMARK  191  A    between atoms: _464  and  _466
REMARK  192  A    between atoms: _466  and  _467
REMARK  193  A    between atoms: _466  and  _469
REMARK  194  A    between atoms: _472  and  _474
REMARK  195  A    between atoms: _474  and  _475
REMARK  196  A    between atoms: _474  and  _477
REMARK  197  A    between atoms: _477  and  _478
REMARK  198  A    between atoms: _483  and  _485
REMARK  199  A    between atoms: _485  and  _486
REMARK  200  A    between atoms: _485  and  _488
REMARK  201  A    between atoms: _488  and  _489
REMARK  202  A    between atoms: _492  and  _494
REMARK  203  A    between atoms: _494  and  _495
REMARK  204  A    between atoms: _494  and  _497
REMARK  205  A    between atoms: _497  and  _498
REMARK  206  A    between atoms: _501  and  _503
REMARK  207  A    between atoms: _503  and  _504
REMARK  208  A    between atoms: _506  and  _508
REMARK  209  A    between atoms: _508  and  _509
REMARK  210  A    between atoms: _508  and  _511
REMARK  211  A    between atoms: _511  and  _512
REMARK  212  A    between atoms: _512  and  _513
REMARK  213  A    between atoms: _513  and  _514
REMARK  214  A    between atoms: _523  and  _525
REMARK  215  A    between atoms: _525  and  _526
REMARK  216  A    between atoms: _525  and  _528
REMARK  217  A    between atoms: _528  and  _529
REMARK                            x       y       z     vdW  Elec       q    Type
REMARK                         _______ _______ _______ _____ _____    ______ ____
ROOT
ATOM      1  O   HOH     1      30.300  21.247  10.927  0.00  0.00    +0.000 OA
ENDROOT
TORSDOF 0
REMARK  Name = ../refined-set-2016/3o99/3o99_pocket.pdb
REMARK  217 active torsions:
REMARK  status: ('A' for Active; 'I' for Inactive)
REMARK    1  A    between atoms: _1  and  _3
REMARK    2  A    between atoms: _3  and  _4
REMARK    3  A    between atoms: _3  and  _6
REMARK    4  A    between atoms: _6  and  _7
REMARK    5  A    between atoms: _7  and  _8
REMARK    6  A    between atoms: _8  and  _9
REMARK    7  A    between atoms: _18  and  _20
REMARK    8  A    between atoms: _20  and  _21
REMARK    9  A    between atoms: _20  and  _23
REMARK   10  A    between atoms: _23  and  _24
REMARK   11  A    between atoms: _27  and  _29
REMARK   12  A    between atoms: _29  and  _30
REMARK   13  A    between atoms: _29  and  _32
REMARK   14  A    between atoms: _32  and  _33
REMARK   15  A    between atoms: _36  and  _38
REMARK   16  A    between atoms: _38  and  _39
REMARK   17  A    between atoms: _38  and  _41
REMARK   18  A    between atoms: _41  and  _42
REMARK   19  A    between atoms: _45  and  _47
REMARK   20  A    between atoms: _47  and  _48
REMARK   21  A    between atoms: _47  and  _50
REMARK   22  A    between atoms: _50  and  _51
REMARK   23  A    between atoms: _54  and  _56
REMARK   24  A    between atoms: _56  and  _57
REMARK   25  A    between atoms: _59  and  _61
REMARK   26  A    between atoms: _61  and  _62
REMARK   27  A    between atoms: _65  and  _67
REMARK   28  A    between atoms: _67  and  _68
REMARK   29  A    between atoms: _67  and  _70
REMARK   30  A    between atoms: _70  and  _71
REMARK   31  A    between atoms: _74  and  _76
REMARK   32  A    between atoms: _76  and  _77
REMARK   33  A    between atoms: _76  and  _79
REMARK   34  A    between atoms: _79  and  _80
REMARK   35  A    between atoms: _83  and  _85
REMARK   36  A    between atoms: _85  and  _86
REMARK   37  A    between atoms: _85  and  _88
REMARK   38  A    between atoms: _88  and  _89
REMARK   39  A    between atoms: _92  and  _94
REMARK   40  A    between atoms: _94  and  _95
REMARK   41  A    between atoms: _94  and  _97
REMARK   42  A    between atoms: _100  and  _102
REMARK   43  A    between atoms: _102  and  _103
REMARK   44  A    between atoms: _102  and  _105
REMARK   45  A    between atoms: _105  and  _106
REMARK   46  A    between atoms: _109  and  _111
REMARK   47  A    between atoms: _111  and  _112
REMARK   48  A    between atoms: _114  and  _116
REMARK   49  A    between atoms: _116  and  _117
REMARK   50  A    between atoms: _119  and  _121
REMARK   51  A    between atoms: _121  and  _122
REMARK   52  A    between atoms: _121  and  _124
REMARK   53  A    between atoms: _124  and  _125
REMARK   54  A    between atoms: _128  and  _130
REMARK   55  A    between atoms: _130  and  _131
REMARK   56  A    between atoms: _133  and  _135
REMARK   57  A    between atoms: _135  and  _136
REMARK   58  A    between atoms: _138  and  _140
REMARK   59  A    between atoms: _140  and  _141
REMARK   60  A    between atoms: _140  and  _143
REMARK   61  A    between atoms: _143  and  _144
REMARK   62  A    between atoms: _147  and  _149
REMARK   63  A    between atoms: _149  and  _150
REMARK   64  A    between atoms: _149  and  _152
REMARK   65  A    between atoms: _152  and  _153
REMARK   66  A    between atoms: _156  and  _158
REMARK   67  A    between atoms: _158  and  _159
REMARK   68  A    between atoms: _158  and  _161
REMARK   69  A    between atoms: _161  and  _162
REMARK   70  A    between atoms: _166  and  _167
REMARK   71  A    between atoms: _172  and  _174
REMARK   72  A    between atoms: _174  and  _175
REMARK   73  A    between atoms: _174  and  _177
REMARK   74  A    between atoms: _180  and  _182
REMARK   75  A    between atoms: _182  and  _183
REMARK   76  A    between atoms: _182  and  _185
REMARK   77  A    between atoms: _185  and  _186
REMARK   78  A    between atoms: _191  and  _193
REMARK   79  A    between atoms: _193  and  _194
REMARK   80  A    between atoms: _193  and  _196
REMARK   81  A    between atoms: _196  and  _197
REMARK   82  A    between atoms: _200  and  _202
REMARK   83  A    between atoms: _202  and  _203
REMARK   84  A    between atoms: _202  and  _205
REMARK   85  A    between atoms: _205  and  _206
REMARK   86  A    between atoms: _209  and  _211
REMARK   87  A    between atoms: _211  and  _212
REMARK   88  A    between atoms: _214  and  _216
REMARK   89  A    between atoms: _216  and  _217
REMARK   90  A    between atoms: _216  and  _219
REMARK   91  A    between atoms: _219  and  _220
REMARK   92  A    between atoms: _220  and  _221
REMARK   93  A    between atoms: _221  and  _222
REMARK   94  A    between atoms: _231  and  _233
REMARK   95  A    between atoms: _233  and  _234
REMARK   96  A    between atoms: _233  and  _236
REMARK   97  A    between atoms: _236  and  _237
REMARK   98  A    between atoms: _242  and  _244
REMARK   99  A    between atoms: _244  and  _245
REMARK  100  A    between atoms: _244  and  _247
REMARK  101  A    between atoms: _247  and  _248
REMARK  102  A    between atoms: _248  and  _249
REMARK  103  A    between atoms: _249  and  _250
REMARK  104  A    between atoms: _259  and  _261
REMARK  105  A    between atoms: _261  and  _262
REMARK  106  A    between atoms: _261  and  _264
REMARK  107  A    between atoms: _264  and  _265
REMARK  108  A    between atoms: _268  and  _270
REMARK  109  A    between atoms: _270  and  _271
REMARK  110  A    between atoms: _270  and  _273
REMARK  111  A    between atoms: _273  and  _274
REMARK  112  A    between atoms: _277  and  _279
REMARK  113  A    between atoms: _279  and  _280
REMARK  114  A    between atoms: _279  and  _282
REMARK  115  A    between atoms: _282  and  _283
REMARK  116  A    between atoms: _286  and  _288
REMARK  117  A    between atoms: _288  and  _289
REMARK  118  A    between atoms: _288  and  _291
REMARK  119  A    between atoms: _291  and  _292
REMARK  120  A    between atoms: _295  and  _297
REMARK  121  A    between atoms: _297  and  _298
REMARK  122  A    between atoms: _300  and  _302
REMARK  123  A    between atoms: _302  and  _303
REMARK  124  A    between atoms: _306  and  _308
REMARK  125  A    between atoms: _308  and  _309
REMARK  126  A    between atoms: _308  and  _311
REMARK  127  A    between atoms: _311  and  _312
REMARK  128  A    between atoms: _315  and  _317
REMARK  129  A    between atoms: _317  and  _318
REMARK  130  A    between atoms: _317  and  _320
REMARK  131  A    between atoms: _320  and  _321
REMARK  132  A    between atoms: _324  and  _326
REMARK  133  A    between atoms: _326  and  _327
REMARK  134  A    between atoms: _326  and  _329
REMARK  135  A    between atoms: _329  and  _330
REMARK  136  A    between atoms: _333  and  _335
REMARK  137  A    between atoms: _335  and  _336
REMARK  138  A    between atoms: _335  and  _338
REMARK  139  A    between atoms: _341  and  _343
REMARK  140  A    between atoms: _343  and  _344
REMARK  141  A    between atoms: _343  and  _346
REMARK  142  A    between atoms: _346  and  _347
REMARK  143  A    between atoms: _350  and  _352
REMARK  144  A    between atoms: _352  and  _353
REMARK  145  A    between atoms: _352  and  _355
REMARK  146  A    between atoms: _355  and  _356
REMARK  147  A    between atoms: _356  and  _357
REMARK  148  A    between atoms: _357  and  _358
REMARK  149  A    between atoms: _358  and  _359
REMARK  150  A    between atoms: _363  and  _365
REMARK  151  A    between atoms: _365  and  _366
REMARK  152  A    between atoms: _365  and  _368
REMARK  153  A    between atoms: _368  and  _369
REMARK  154  A    between atoms: _369  and  _370
REMARK  155  A    between atoms: _372  and  _374
REMARK  156  A    between atoms: _374  and  _375
REMARK  157  A    between atoms: _374  and  _377
REMARK  158  A    between atoms: _377  and  _378
REMARK  159  A    between atoms: _381  and  _383
REMARK  160  A    between atoms: _383  and  _384
REMARK  161  A    between atoms: _386  and  _388
REMARK  162  A    between atoms: _388  and  _389
REMARK  163  A    between atoms: _391  and  _393
REMARK  164  A    between atoms: _393  and  _394
REMARK  165  A    between atoms: _393  and  _396
REMARK  166  A    between atoms: _396  and  _397
REMARK  167  A    between atoms: _400  and  _402
REMARK  168  A    between atoms: _402  and  _403
REMARK  169  A    between atoms: _405  and  _407
REMARK  170  A    between atoms: _407  and  _408
REMARK  171  A    between atoms: _410  and  _412
REMARK  172  A    between atoms: _412  and  _413
REMARK  173  A    between atoms: _412  and  _415
REMARK  174  A    between atoms: _415  and  _416
REMARK  175  A    between atoms: _422  and  _424
REMARK  176  A    between atoms: _424  and  _425
REMARK  177  A    between atoms: _424  and  _427
REMARK  178  A    between atoms: _427  and  _428
REMARK  179  A    between atoms: _431  and  _433
REMARK  180  A    between atoms: _433  and  _434
REMARK  181  A    between atoms: _433  and  _436
REMARK  182  A    between atoms: _439  and  _441
REMARK  183  A    between atoms: _441  and  _442
REMARK  184  A    between atoms: _441  and  _444
REMARK  185  A    between atoms: _444  and  _445
REMARK  186  A    between atoms: _448  and  _450
REMARK  187  A    between atoms: _450  and  _451
REMARK  188  A    between atoms: _450  and  _453
REMARK  189  A    between atoms: _453  and  _454
REMARK  190  A    between atoms: _458  and  _459
REMARK  191  A    between atoms: _464  and  _466
REMARK  192  A    between atoms: _466  and  _467
REMARK  193  A    between atoms: _466  and  _469
REMARK  194  A    between atoms: _472  and  _474
REMARK  195  A    between atoms: _474  and  _475
REMARK  196  A    between atoms: _474  and  _477
REMARK  197  A    between atoms: _477  and  _478
REMARK  198  A    between atoms: _483  and  _485
REMARK  199  A    between atoms: _485  and  _486
REMARK  200  A    between atoms: _485  and  _488
REMARK  201  A    between atoms: _488  and  _489
REMARK  202  A    between atoms: _492  and  _494
REMARK  203  A    between atoms: _494  and  _495
REMARK  204  A    between atoms: _494  and  _497
REMARK  205  A    between atoms: _497  and  _498
REMARK  206  A    between atoms: _501  and  _503
REMARK  207  A    between atoms: _503  and  _504
REMARK  208  A    between atoms: _506  and  _508
REMARK  209  A    between atoms: _508  and  _509
REMARK  210  A    between atoms: _508  and  _511
REMARK  211  A    between atoms: _511  and  _512
REMARK  212  A    between atoms: _512  and  _513
REMARK  213  A    between atoms: _513  and  _514
REMARK  214  A    between atoms: _523  and  _525
REMARK  215  A    between atoms: _525  and  _526
REMARK  216  A    between atoms: _525  and  _528
REMARK  217  A    between atoms: _528  and  _529
REMARK                            x       y       z     vdW  Elec       q    Type
REMARK                         _______ _______ _______ _____ _____    ______ ____
ROOT
ATOM      1  O   HOH     1      15.177  33.661   5.056  0.00  0.00    +0.000 OA
ENDROOT
TORSDOF 0
REMARK  Name = ../refined-set-2016/3o99/3o99_pocket.pdb
REMARK  217 active torsions:
REMARK  status: ('A' for Active; 'I' for Inactive)
REMARK    1  A    between atoms: _1  and  _3
REMARK    2  A    between atoms: _3  and  _4
REMARK    3  A    between atoms: _3  and  _6
REMARK    4  A    between atoms: _6  and  _7
REMARK    5  A    between atoms: _7  and  _8
REMARK    6  A    between atoms: _8  and  _9
REMARK    7  A    between atoms: _18  and  _20
REMARK    8  A    between atoms: _20  and  _21
REMARK    9  A    between atoms: _20  and  _23
REMARK   10  A    between atoms: _23  and  _24
REMARK   11  A    between atoms: _27  and  _29
REMARK   12  A    between atoms: _29  and  _30
REMARK   13  A    between atoms: _29  and  _32
REMARK   14  A    between atoms: _32  and  _33
REMARK   15  A    between atoms: _36  and  _38
REMARK   16  A    between atoms: _38  and  _39
REMARK   17  A    between atoms: _38  and  _41
REMARK   18  A    between atoms: _41  and  _42
REMARK   19  A    between atoms: _45  and  _47
REMARK   20  A    between atoms: _47  and  _48
REMARK   21  A    between atoms: _47  and  _50
REMARK   22  A    between atoms: _50  and  _51
REMARK   23  A    between atoms: _54  and  _56
REMARK   24  A    between atoms: _56  and  _57
REMARK   25  A    between atoms: _59  and  _61
REMARK   26  A    between atoms: _61  and  _62
REMARK   27  A    between atoms: _65  and  _67
REMARK   28  A    between atoms: _67  and  _68
REMARK   29  A    between atoms: _67  and  _70
REMARK   30  A    between atoms: _70  and  _71
REMARK   31  A    between atoms: _74  and  _76
REMARK   32  A    between atoms: _76  and  _77
REMARK   33  A    between atoms: _76  and  _79
REMARK   34  A    between atoms: _79  and  _80
REMARK   35  A    between atoms: _83  and  _85
REMARK   36  A    between atoms: _85  and  _86
REMARK   37  A    between atoms: _85  and  _88
REMARK   38  A    between atoms: _88  and  _89
REMARK   39  A    between atoms: _92  and  _94
REMARK   40  A    between atoms: _94  and  _95
REMARK   41  A    between atoms: _94  and  _97
REMARK   42  A    between atoms: _100  and  _102
REMARK   43  A    between atoms: _102  and  _103
REMARK   44  A    between atoms: _102  and  _105
REMARK   45  A    between atoms: _105  and  _106
REMARK   46  A    between atoms: _109  and  _111
REMARK   47  A    between atoms: _111  and  _112
REMARK   48  A    between atoms: _114  and  _116
REMARK   49  A    between atoms: _116  and  _117
REMARK   50  A    between atoms: _119  and  _121
REMARK   51  A    between atoms: _121  and  _122
REMARK   52  A    between atoms: _121  and  _124
REMARK   53  A    between atoms: _124  and  _125
REMARK   54  A    between atoms: _128  and  _130
REMARK   55  A    between atoms: _130  and  _131
REMARK   56  A    between atoms: _133  and  _135
REMARK   57  A    between atoms: _135  and  _136
REMARK   58  A    between atoms: _138  and  _140
REMARK   59  A    between atoms: _140  and  _141
REMARK   60  A    between atoms: _140  and  _143
REMARK   61  A    between atoms: _143  and  _144
REMARK   62  A    between atoms: _147  and  _149
REMARK   63  A    between atoms: _149  and  _150
REMARK   64  A    between atoms: _149  and  _152
REMARK   65  A    between atoms: _152  and  _153
REMARK   66  A    between atoms: _156  and  _158
REMARK   67  A    between atoms: _158  and  _159
REMARK   68  A    between atoms: _158  and  _161
REMARK   69  A    between atoms: _161  and  _162
REMARK   70  A    between atoms: _166  and  _167
REMARK   71  A    between atoms: _172  and  _174
REMARK   72  A    between atoms: _174  and  _175
REMARK   73  A    between atoms: _174  and  _177
REMARK   74  A    between atoms: _180  and  _182
REMARK   75  A    between atoms: _182  and  _183
REMARK   76  A    between atoms: _182  and  _185
REMARK   77  A    between atoms: _185  and  _186
REMARK   78  A    between atoms: _191  and  _193
REMARK   79  A    between atoms: _193  and  _194
REMARK   80  A    between atoms: _193  and  _196
REMARK   81  A    between atoms: _196  and  _197
REMARK   82  A    between atoms: _200  and  _202
REMARK   83  A    between atoms: _202  and  _203
REMARK   84  A    between atoms: _202  and  _205
REMARK   85  A    between atoms: _205  and  _206
REMARK   86  A    between atoms: _209  and  _211
REMARK   87  A    between atoms: _211  and  _212
REMARK   88  A    between atoms: _214  and  _216
REMARK   89  A    between atoms: _216  and  _217
REMARK   90  A    between atoms: _216  and  _219
REMARK   91  A    between atoms: _219  and  _220
REMARK   92  A    between atoms: _220  and  _221
REMARK   93  A    between atoms: _221  and  _222
REMARK   94  A    between atoms: _231  and  _233
REMARK   95  A    between atoms: _233  and  _234
REMARK   96  A    between atoms: _233  and  _236
REMARK   97  A    between atoms: _236  and  _237
REMARK   98  A    between atoms: _242  and  _244
REMARK   99  A    between atoms: _244  and  _245
REMARK  100  A    between atoms: _244  and  _247
REMARK  101  A    between atoms: _247  and  _248
REMARK  102  A    between atoms: _248  and  _249
REMARK  103  A    between atoms: _249  and  _250
REMARK  104  A    between atoms: _259  and  _261
REMARK  105  A    between atoms: _261  and  _262
REMARK  106  A    between atoms: _261  and  _264
REMARK  107  A    between atoms: _264  and  _265
REMARK  108  A    between atoms: _268  and  _270
REMARK  109  A    between atoms: _270  and  _271
REMARK  110  A    between atoms: _270  and  _273
REMARK  111  A    between atoms: _273  and  _274
REMARK  112  A    between atoms: _277  and  _279
REMARK  113  A    between atoms: _279  and  _280
REMARK  114  A    between atoms: _279  and  _282
REMARK  115  A    between atoms: _282  and  _283
REMARK  116  A    between atoms: _286  and  _288
REMARK  117  A    between atoms: _288  and  _289
REMARK  118  A    between atoms: _288  and  _291
REMARK  119  A    between atoms: _291  and  _292
REMARK  120  A    between atoms: _295  and  _297
REMARK  121  A    between atoms: _297  and  _298
REMARK  122  A    between atoms: _300  and  _302
REMARK  123  A    between atoms: _302  and  _303
REMARK  124  A    between atoms: _306  and  _308
REMARK  125  A    between atoms: _308  and  _309
REMARK  126  A    between atoms: _308  and  _311
REMARK  127  A    between atoms: _311  and  _312
REMARK  128  A    between atoms: _315  and  _317
REMARK  129  A    between atoms: _317  and  _318
REMARK  130  A    between atoms: _317  and  _320
REMARK  131  A    between atoms: _320  and  _321
REMARK  132  A    between atoms: _324  and  _326
REMARK  133  A    between atoms: _326  and  _327
REMARK  134  A    between atoms: _326  and  _329
REMARK  135  A    between atoms: _329  and  _330
REMARK  136  A    between atoms: _333  and  _335
REMARK  137  A    between atoms: _335  and  _336
REMARK  138  A    between atoms: _335  and  _338
REMARK  139  A    between atoms: _341  and  _343
REMARK  140  A    between atoms: _343  and  _344
REMARK  141  A    between atoms: _343  and  _346
REMARK  142  A    between atoms: _346  and  _347
REMARK  143  A    between atoms: _350  and  _352
REMARK  144  A    between atoms: _352  and  _353
REMARK  145  A    between atoms: _352  and  _355
REMARK  146  A    between atoms: _355  and  _356
REMARK  147  A    between atoms: _356  and  _357
REMARK  148  A    between atoms: _357  and  _358
REMARK  149  A    between atoms: _358  and  _359
REMARK  150  A    between atoms: _363  and  _365
REMARK  151  A    between atoms: _365  and  _366
REMARK  152  A    between atoms: _365  and  _368
REMARK  153  A    between atoms: _368  and  _369
REMARK  154  A    between atoms: _369  and  _370
REMARK  155  A    between atoms: _372  and  _374
REMARK  156  A    between atoms: _374  and  _375
REMARK  157  A    between atoms: _374  and  _377
REMARK  158  A    between atoms: _377  and  _378
REMARK  159  A    between atoms: _381  and  _383
REMARK  160  A    between atoms: _383  and  _384
REMARK  161  A    between atoms: _386  and  _388
REMARK  162  A    between atoms: _388  and  _389
REMARK  163  A    between atoms: _391  and  _393
REMARK  164  A    between atoms: _393  and  _394
REMARK  165  A    between atoms: _393  and  _396
REMARK  166  A    between atoms: _396  and  _397
REMARK  167  A    between atoms: _400  and  _402
REMARK  168  A    between atoms: _402  and  _403
REMARK  169  A    between atoms: _405  and  _407
REMARK  170  A    between atoms: _407  and  _408
REMARK  171  A    between atoms: _410  and  _412
REMARK  172  A    between atoms: _412  and  _413
REMARK  173  A    between atoms: _412  and  _415
REMARK  174  A    between atoms: _415  and  _416
REMARK  175  A    between atoms: _422  and  _424
REMARK  176  A    between atoms: _424  and  _425
REMARK  177  A    between atoms: _424  and  _427
REMARK  178  A    between atoms: _427  and  _428
REMARK  179  A    between atoms: _431  and  _433
REMARK  180  A    between atoms: _433  and  _434
REMARK  181  A    between atoms: _433  and  _436
REMARK  182  A    between atoms: _439  and  _441
REMARK  183  A    between atoms: _441  and  _442
REMARK  184  A    between atoms: _441  and  _444
REMARK  185  A    between atoms: _444  and  _445
REMARK  186  A    between atoms: _448  and  _450
REMARK  187  A    between atoms: _450  and  _451
REMARK  188  A    between atoms: _450  and  _453
REMARK  189  A    between atoms: _453  and  _454
REMARK  190  A    between atoms: _458  and  _459
REMARK  191  A    between atoms: _464  and  _466
REMARK  192  A    between atoms: _466  and  _467
REMARK  193  A    between atoms: _466  and  _469
REMARK  194  A    between atoms: _472  and  _474
REMARK  195  A    between atoms: _474  and  _475
REMARK  196  A    between atoms: _474  and  _477
REMARK  197  A    between atoms: _477  and  _478
REMARK  198  A    between atoms: _483  and  _485
REMARK  199  A    between atoms: _485  and  _486
REMARK  200  A    between atoms: _485  and  _488
REMARK  201  A    between atoms: _488  and  _489
REMARK  202  A    between atoms: _492  and  _494
REMARK  203  A    between atoms: _494  and  _495
REMARK  204  A    between atoms: _494  and  _497
REMARK  205  A    between atoms: _497  and  _498
REMARK  206  A    between atoms: _501  and  _503
REMARK  207  A    between atoms: _503  and  _504
REMARK  208  A    between atoms: _506  and  _508
REMARK  209  A    between atoms: _508  and  _509
REMARK  210  A    between atoms: _508  and  _511
REMARK  211  A    between atoms: _511  and  _512
REMARK  212  A    between atoms: _512  and  _513
REMARK  213  A    between atoms: _513  and  _514
REMARK  214  A    between atoms: _523  and  _525
REMARK  215  A    between atoms: _525  and  _526
REMARK  216  A    between atoms: _525  and  _528
REMARK  217  A    between atoms: _528  and  _529
REMARK                            x       y       z     vdW  Elec       q    Type
REMARK                         _______ _______ _______ _____ _____    ______ ____
ROOT
ATOM      1  O   HOH     1      23.297  25.403   5.141  0.00  0.00    +0.000 OA
ENDROOT
TORSDOF 0
REMARK  Name = ../refined-set-2016/3o99/3o99_pocket.pdb
REMARK  217 active torsions:
REMARK  status: ('A' for Active; 'I' for Inactive)
REMARK    1  A    between atoms: _1  and  _3
REMARK    2  A    between atoms: _3  and  _4
REMARK    3  A    between atoms: _3  and  _6
REMARK    4  A    between atoms: _6  and  _7
REMARK    5  A    between atoms: _7  and  _8
REMARK    6  A    between atoms: _8  and  _9
REMARK    7  A    between atoms: _18  and  _20
REMARK    8  A    between atoms: _20  and  _21
REMARK    9  A    between atoms: _20  and  _23
REMARK   10  A    between atoms: _23  and  _24
REMARK   11  A    between atoms: _27  and  _29
REMARK   12  A    between atoms: _29  and  _30
REMARK   13  A    between atoms: _29  and  _32
REMARK   14  A    between atoms: _32  and  _33
REMARK   15  A    between atoms: _36  and  _38
REMARK   16  A    between atoms: _38  and  _39
REMARK   17  A    between atoms: _38  and  _41
REMARK   18  A    between atoms: _41  and  _42
REMARK   19  A    between atoms: _45  and  _47
REMARK   20  A    between atoms: _47  and  _48
REMARK   21  A    between atoms: _47  and  _50
REMARK   22  A    between atoms: _50  and  _51
REMARK   23  A    between atoms: _54  and  _56
REMARK   24  A    between atoms: _56  and  _57
REMARK   25  A    between atoms: _59  and  _61
REMARK   26  A    between atoms: _61  and  _62
REMARK   27  A    between atoms: _65  and  _67
REMARK   28  A    between atoms: _67  and  _68
REMARK   29  A    between atoms: _67  and  _70
REMARK   30  A    between atoms: _70  and  _71
REMARK   31  A    between atoms: _74  and  _76
REMARK   32  A    between atoms: _76  and  _77
REMARK   33  A    between atoms: _76  and  _79
REMARK   34  A    between atoms: _79  and  _80
REMARK   35  A    between atoms: _83  and  _85
REMARK   36  A    between atoms: _85  and  _86
REMARK   37  A    between atoms: _85  and  _88
REMARK   38  A    between atoms: _88  and  _89
REMARK   39  A    between atoms: _92  and  _94
REMARK   40  A    between atoms: _94  and  _95
REMARK   41  A    between atoms: _94  and  _97
REMARK   42  A    between atoms: _100  and  _102
REMARK   43  A    between atoms: _102  and  _103
REMARK   44  A    between atoms: _102  and  _105
REMARK   45  A    between atoms: _105  and  _106
REMARK   46  A    between atoms: _109  and  _111
REMARK   47  A    between atoms: _111  and  _112
REMARK   48  A    between atoms: _114  and  _116
REMARK   49  A    between atoms: _116  and  _117
REMARK   50  A    between atoms: _119  and  _121
REMARK   51  A    between atoms: _121  and  _122
REMARK   52  A    between atoms: _121  and  _124
REMARK   53  A    between atoms: _124  and  _125
REMARK   54  A    between atoms: _128  and  _130
REMARK   55  A    between atoms: _130  and  _131
REMARK   56  A    between atoms: _133  and  _135
REMARK   57  A    between atoms: _135  and  _136
REMARK   58  A    between atoms: _138  and  _140
REMARK   59  A    between atoms: _140  and  _141
REMARK   60  A    between atoms: _140  and  _143
REMARK   61  A    between atoms: _143  and  _144
REMARK   62  A    between atoms: _147  and  _149
REMARK   63  A    between atoms: _149  and  _150
REMARK   64  A    between atoms: _149  and  _152
REMARK   65  A    between atoms: _152  and  _153
REMARK   66  A    between atoms: _156  and  _158
REMARK   67  A    between atoms: _158  and  _159
REMARK   68  A    between atoms: _158  and  _161
REMARK   69  A    between atoms: _161  and  _162
REMARK   70  A    between atoms: _166  and  _167
REMARK   71  A    between atoms: _172  and  _174
REMARK   72  A    between atoms: _174  and  _175
REMARK   73  A    between atoms: _174  and  _177
REMARK   74  A    between atoms: _180  and  _182
REMARK   75  A    between atoms: _182  and  _183
REMARK   76  A    between atoms: _182  and  _185
REMARK   77  A    between atoms: _185  and  _186
REMARK   78  A    between atoms: _191  and  _193
REMARK   79  A    between atoms: _193  and  _194
REMARK   80  A    between atoms: _193  and  _196
REMARK   81  A    between atoms: _196  and  _197
REMARK   82  A    between atoms: _200  and  _202
REMARK   83  A    between atoms: _202  and  _203
REMARK   84  A    between atoms: _202  and  _205
REMARK   85  A    between atoms: _205  and  _206
REMARK   86  A    between atoms: _209  and  _211
REMARK   87  A    between atoms: _211  and  _212
REMARK   88  A    between atoms: _214  and  _216
REMARK   89  A    between atoms: _216  and  _217
REMARK   90  A    between atoms: _216  and  _219
REMARK   91  A    between atoms: _219  and  _220
REMARK   92  A    between atoms: _220  and  _221
REMARK   93  A    between atoms: _221  and  _222
REMARK   94  A    between atoms: _231  and  _233
REMARK   95  A    between atoms: _233  and  _234
REMARK   96  A    between atoms: _233  and  _236
REMARK   97  A    between atoms: _236  and  _237
REMARK   98  A    between atoms: _242  and  _244
REMARK   99  A    between atoms: _244  and  _245
REMARK  100  A    between atoms: _244  and  _247
REMARK  101  A    between atoms: _247  and  _248
REMARK  102  A    between atoms: _248  and  _249
REMARK  103  A    between atoms: _249  and  _250
REMARK  104  A    between atoms: _259  and  _261
REMARK  105  A    between atoms: _261  and  _262
REMARK  106  A    between atoms: _261  and  _264
REMARK  107  A    between atoms: _264  and  _265
REMARK  108  A    between atoms: _268  and  _270
REMARK  109  A    between atoms: _270  and  _271
REMARK  110  A    between atoms: _270  and  _273
REMARK  111  A    between atoms: _273  and  _274
REMARK  112  A    between atoms: _277  and  _279
REMARK  113  A    between atoms: _279  and  _280
REMARK  114  A    between atoms: _279  and  _282
REMARK  115  A    between atoms: _282  and  _283
REMARK  116  A    between atoms: _286  and  _288
REMARK  117  A    between atoms: _288  and  _289
REMARK  118  A    between atoms: _288  and  _291
REMARK  119  A    between atoms: _291  and  _292
REMARK  120  A    between atoms: _295  and  _297
REMARK  121  A    between atoms: _297  and  _298
REMARK  122  A    between atoms: _300  and  _302
REMARK  123  A    between atoms: _302  and  _303
REMARK  124  A    between atoms: _306  and  _308
REMARK  125  A    between atoms: _308  and  _309
REMARK  126  A    between atoms: _308  and  _311
REMARK  127  A    between atoms: _311  and  _312
REMARK  128  A    between atoms: _315  and  _317
REMARK  129  A    between atoms: _317  and  _318
REMARK  130  A    between atoms: _317  and  _320
REMARK  131  A    between atoms: _320  and  _321
REMARK  132  A    between atoms: _324  and  _326
REMARK  133  A    between atoms: _326  and  _327
REMARK  134  A    between atoms: _326  and  _329
REMARK  135  A    between atoms: _329  and  _330
REMARK  136  A    between atoms: _333  and  _335
REMARK  137  A    between atoms: _335  and  _336
REMARK  138  A    between atoms: _335  and  _338
REMARK  139  A    between atoms: _341  and  _343
REMARK  140  A    between atoms: _343  and  _344
REMARK  141  A    between atoms: _343  and  _346
REMARK  142  A    between atoms: _346  and  _347
REMARK  143  A    between atoms: _350  and  _352
REMARK  144  A    between atoms: _352  and  _353
REMARK  145  A    between atoms: _352  and  _355
REMARK  146  A    between atoms: _355  and  _356
REMARK  147  A    between atoms: _356  and  _357
REMARK  148  A    between atoms: _357  and  _358
REMARK  149  A    between atoms: _358  and  _359
REMARK  150  A    between atoms: _363  and  _365
REMARK  151  A    between atoms: _365  and  _366
REMARK  152  A    between atoms: _365  and  _368
REMARK  153  A    between atoms: _368  and  _369
REMARK  154  A    between atoms: _369  and  _370
REMARK  155  A    between atoms: _372  and  _374
REMARK  156  A    between atoms: _374  and  _375
REMARK  157  A    between atoms: _374  and  _377
REMARK  158  A    between atoms: _377  and  _378
REMARK  159  A    between atoms: _381  and  _383
REMARK  160  A    between atoms: _383  and  _384
REMARK  161  A    between atoms: _386  and  _388
REMARK  162  A    between atoms: _388  and  _389
REMARK  163  A    between atoms: _391  and  _393
REMARK  164  A    between atoms: _393  and  _394
REMARK  165  A    between atoms: _393  and  _396
REMARK  166  A    between atoms: _396  and  _397
REMARK  167  A    between atoms: _400  and  _402
REMARK  168  A    between atoms: _402  and  _403
REMARK  169  A    between atoms: _405  and  _407
REMARK  170  A    between atoms: _407  and  _408
REMARK  171  A    between atoms: _410  and  _412
REMARK  172  A    between atoms: _412  and  _413
REMARK  173  A    between atoms: _412  and  _415
REMARK  174  A    between atoms: _415  and  _416
REMARK  175  A    between atoms: _422  and  _424
REMARK  176  A    between atoms: _424  and  _425
REMARK  177  A    between atoms: _424  and  _427
REMARK  178  A    between atoms: _427  and  _428
REMARK  179  A    between atoms: _431  and  _433
REMARK  180  A    between atoms: _433  and  _434
REMARK  181  A    between atoms: _433  and  _436
REMARK  182  A    between atoms: _439  and  _441
REMARK  183  A    between atoms: _441  and  _442
REMARK  184  A    between atoms: _441  and  _444
REMARK  185  A    between atoms: _444  and  _445
REMARK  186  A    between atoms: _448  and  _450
REMARK  187  A    between atoms: _450  and  _451
REMARK  188  A    between atoms: _450  and  _453
REMARK  189  A    between atoms: _453  and  _454
REMARK  190  A    between atoms: _458  and  _459
REMARK  191  A    between atoms: _464  and  _466
REMARK  192  A    between atoms: _466  and  _467
REMARK  193  A    between atoms: _466  and  _469
REMARK  194  A    between atoms: _472  and  _474
REMARK  195  A    between atoms: _474  and  _475
REMARK  196  A    between atoms: _474  and  _477
REMARK  197  A    between atoms: _477  and  _478
REMARK  198  A    between atoms: _483  and  _485
REMARK  199  A    between atoms: _485  and  _486
REMARK  200  A    between atoms: _485  and  _488
REMARK  201  A    between atoms: _488  and  _489
REMARK  202  A    between atoms: _492  and  _494
REMARK  203  A    between atoms: _494  and  _495
REMARK  204  A    between atoms: _494  and  _497
REMARK  205  A    between atoms: _497  and  _498
REMARK  206  A    between atoms: _501  and  _503
REMARK  207  A    between atoms: _503  and  _504
REMARK  208  A    between atoms: _506  and  _508
REMARK  209  A    between atoms: _508  and  _509
REMARK  210  A    between atoms: _508  and  _511
REMARK  211  A    between atoms: _511  and  _512
REMARK  212  A    between atoms: _512  and  _513
REMARK  213  A    between atoms: _513  and  _514
REMARK  214  A    between atoms: _523  and  _525
REMARK  215  A    between atoms: _525  and  _526
REMARK  216  A    between atoms: _525  and  _528
REMARK  217  A    between atoms: _528  and  _529
REMARK                            x       y       z     vdW  Elec       q    Type
REMARK                         _______ _______ _______ _____ _____    ______ ____
ROOT
ATOM      1  O   HOH     1      24.527  17.749  10.893  0.00  0.00    +0.000 OA
ENDROOT
TORSDOF 0
REMARK  Name = ../refined-set-2016/3o99/3o99_pocket.pdb
REMARK  217 active torsions:
REMARK  status: ('A' for Active; 'I' for Inactive)
REMARK    1  A    between atoms: _1  and  _3
REMARK    2  A    between atoms: _3  and  _4
REMARK    3  A    between atoms: _3  and  _6
REMARK    4  A    between atoms: _6  and  _7
REMARK    5  A    between atoms: _7  and  _8
REMARK    6  A    between atoms: _8  and  _9
REMARK    7  A    between atoms: _18  and  _20
REMARK    8  A    between atoms: _20  and  _21
REMARK    9  A    between atoms: _20  and  _23
REMARK   10  A    between atoms: _23  and  _24
REMARK   11  A    between atoms: _27  and  _29
REMARK   12  A    between atoms: _29  and  _30
REMARK   13  A    between atoms: _29  and  _32
REMARK   14  A    between atoms: _32  and  _33
REMARK   15  A    between atoms: _36  and  _38
REMARK   16  A    between atoms: _38  and  _39
REMARK   17  A    between atoms: _38  and  _41
REMARK   18  A    between atoms: _41  and  _42
REMARK   19  A    between atoms: _45  and  _47
REMARK   20  A    between atoms: _47  and  _48
REMARK   21  A    between atoms: _47  and  _50
REMARK   22  A    between atoms: _50  and  _51
REMARK   23  A    between atoms: _54  and  _56
REMARK   24  A    between atoms: _56  and  _57
REMARK   25  A    between atoms: _59  and  _61
REMARK   26  A    between atoms: _61  and  _62
REMARK   27  A    between atoms: _65  and  _67
REMARK   28  A    between atoms: _67  and  _68
REMARK   29  A    between atoms: _67  and  _70
REMARK   30  A    between atoms: _70  and  _71
REMARK   31  A    between atoms: _74  and  _76
REMARK   32  A    between atoms: _76  and  _77
REMARK   33  A    between atoms: _76  and  _79
REMARK   34  A    between atoms: _79  and  _80
REMARK   35  A    between atoms: _83  and  _85
REMARK   36  A    between atoms: _85  and  _86
REMARK   37  A    between atoms: _85  and  _88
REMARK   38  A    between atoms: _88  and  _89
REMARK   39  A    between atoms: _92  and  _94
REMARK   40  A    between atoms: _94  and  _95
REMARK   41  A    between atoms: _94  and  _97
REMARK   42  A    between atoms: _100  and  _102
REMARK   43  A    between atoms: _102  and  _103
REMARK   44  A    between atoms: _102  and  _105
REMARK   45  A    between atoms: _105  and  _106
REMARK   46  A    between atoms: _109  and  _111
REMARK   47  A    between atoms: _111  and  _112
REMARK   48  A    between atoms: _114  and  _116
REMARK   49  A    between atoms: _116  and  _117
REMARK   50  A    between atoms: _119  and  _121
REMARK   51  A    between atoms: _121  and  _122
REMARK   52  A    between atoms: _121  and  _124
REMARK   53  A    between atoms: _124  and  _125
REMARK   54  A    between atoms: _128  and  _130
REMARK   55  A    between atoms: _130  and  _131
REMARK   56  A    between atoms: _133  and  _135
REMARK   57  A    between atoms: _135  and  _136
REMARK   58  A    between atoms: _138  and  _140
REMARK   59  A    between atoms: _140  and  _141
REMARK   60  A    between atoms: _140  and  _143
REMARK   61  A    between atoms: _143  and  _144
REMARK   62  A    between atoms: _147  and  _149
REMARK   63  A    between atoms: _149  and  _150
REMARK   64  A    between atoms: _149  and  _152
REMARK   65  A    between atoms: _152  and  _153
REMARK   66  A    between atoms: _156  and  _158
REMARK   67  A    between atoms: _158  and  _159
REMARK   68  A    between atoms: _158  and  _161
REMARK   69  A    between atoms: _161  and  _162
REMARK   70  A    between atoms: _166  and  _167
REMARK   71  A    between atoms: _172  and  _174
REMARK   72  A    between atoms: _174  and  _175
REMARK   73  A    between atoms: _174  and  _177
REMARK   74  A    between atoms: _180  and  _182
REMARK   75  A    between atoms: _182  and  _183
REMARK   76  A    between atoms: _182  and  _185
REMARK   77  A    between atoms: _185  and  _186
REMARK   78  A    between atoms: _191  and  _193
REMARK   79  A    between atoms: _193  and  _194
REMARK   80  A    between atoms: _193  and  _196
REMARK   81  A    between atoms: _196  and  _197
REMARK   82  A    between atoms: _200  and  _202
REMARK   83  A    between atoms: _202  and  _203
REMARK   84  A    between atoms: _202  and  _205
REMARK   85  A    between atoms: _205  and  _206
REMARK   86  A    between atoms: _209  and  _211
REMARK   87  A    between atoms: _211  and  _212
REMARK   88  A    between atoms: _214  and  _216
REMARK   89  A    between atoms: _216  and  _217
REMARK   90  A    between atoms: _216  and  _219
REMARK   91  A    between atoms: _219  and  _220
REMARK   92  A    between atoms: _220  and  _221
REMARK   93  A    between atoms: _221  and  _222
REMARK   94  A    between atoms: _231  and  _233
REMARK   95  A    between atoms: _233  and  _234
REMARK   96  A    between atoms: _233  and  _236
REMARK   97  A    between atoms: _236  and  _237
REMARK   98  A    between atoms: _242  and  _244
REMARK   99  A    between atoms: _244  and  _245
REMARK  100  A    between atoms: _244  and  _247
REMARK  101  A    between atoms: _247  and  _248
REMARK  102  A    between atoms: _248  and  _249
REMARK  103  A    between atoms: _249  and  _250
REMARK  104  A    between atoms: _259  and  _261
REMARK  105  A    between atoms: _261  and  _262
REMARK  106  A    between atoms: _261  and  _264
REMARK  107  A    between atoms: _264  and  _265
REMARK  108  A    between atoms: _268  and  _270
REMARK  109  A    between atoms: _270  and  _271
REMARK  110  A    between atoms: _270  and  _273
REMARK  111  A    between atoms: _273  and  _274
REMARK  112  A    between atoms: _277  and  _279
REMARK  113  A    between atoms: _279  and  _280
REMARK  114  A    between atoms: _279  and  _282
REMARK  115  A    between atoms: _282  and  _283
REMARK  116  A    between atoms: _286  and  _288
REMARK  117  A    between atoms: _288  and  _289
REMARK  118  A    between atoms: _288  and  _291
REMARK  119  A    between atoms: _291  and  _292
REMARK  120  A    between atoms: _295  and  _297
REMARK  121  A    between atoms: _297  and  _298
REMARK  122  A    between atoms: _300  and  _302
REMARK  123  A    between atoms: _302  and  _303
REMARK  124  A    between atoms: _306  and  _308
REMARK  125  A    between atoms: _308  and  _309
REMARK  126  A    between atoms: _308  and  _311
REMARK  127  A    between atoms: _311  and  _312
REMARK  128  A    between atoms: _315  and  _317
REMARK  129  A    between atoms: _317  and  _318
REMARK  130  A    between atoms: _317  and  _320
REMARK  131  A    between atoms: _320  and  _321
REMARK  132  A    between atoms: _324  and  _326
REMARK  133  A    between atoms: _326  and  _327
REMARK  134  A    between atoms: _326  and  _329
REMARK  135  A    between atoms: _329  and  _330
REMARK  136  A    between atoms: _333  and  _335
REMARK  137  A    between atoms: _335  and  _336
REMARK  138  A    between atoms: _335  and  _338
REMARK  139  A    between atoms: _341  and  _343
REMARK  140  A    between atoms: _343  and  _344
REMARK  141  A    between atoms: _343  and  _346
REMARK  142  A    between atoms: _346  and  _347
REMARK  143  A    between atoms: _350  and  _352
REMARK  144  A    between atoms: _352  and  _353
REMARK  145  A    between atoms: _352  and  _355
REMARK  146  A    between atoms: _355  and  _356
REMARK  147  A    between atoms: _356  and  _357
REMARK  148  A    between atoms: _357  and  _358
REMARK  149  A    between atoms: _358  and  _359
REMARK  150  A    between atoms: _363  and  _365
REMARK  151  A    between atoms: _365  and  _366
REMARK  152  A    between atoms: _365  and  _368
REMARK  153  A    between atoms: _368  and  _369
REMARK  154  A    between atoms: _369  and  _370
REMARK  155  A    between atoms: _372  and  _374
REMARK  156  A    between atoms: _374  and  _375
REMARK  157  A    between atoms: _374  and  _377
REMARK  158  A    between atoms: _377  and  _378
REMARK  159  A    between atoms: _381  and  _383
REMARK  160  A    between atoms: _383  and  _384
REMARK  161  A    between atoms: _386  and  _388
REMARK  162  A    between atoms: _388  and  _389
REMARK  163  A    between atoms: _391  and  _393
REMARK  164  A    between atoms: _393  and  _394
REMARK  165  A    between atoms: _393  and  _396
REMARK  166  A    between atoms: _396  and  _397
REMARK  167  A    between atoms: _400  and  _402
REMARK  168  A    between atoms: _402  and  _403
REMARK  169  A    between atoms: _405  and  _407
REMARK  170  A    between atoms: _407  and  _408
REMARK  171  A    between atoms: _410  and  _412
REMARK  172  A    between atoms: _412  and  _413
REMARK  173  A    between atoms: _412  and  _415
REMARK  174  A    between atoms: _415  and  _416
REMARK  175  A    between atoms: _422  and  _424
REMARK  176  A    between atoms: _424  and  _425
REMARK  177  A    between atoms: _424  and  _427
REMARK  178  A    between atoms: _427  and  _428
REMARK  179  A    between atoms: _431  and  _433
REMARK  180  A    between atoms: _433  and  _434
REMARK  181  A    between atoms: _433  and  _436
REMARK  182  A    between atoms: _439  and  _441
REMARK  183  A    between atoms: _441  and  _442
REMARK  184  A    between atoms: _441  and  _444
REMARK  185  A    between atoms: _444  and  _445
REMARK  186  A    between atoms: _448  and  _450
REMARK  187  A    between atoms: _450  and  _451
REMARK  188  A    between atoms: _450  and  _453
REMARK  189  A    between atoms: _453  and  _454
REMARK  190  A    between atoms: _458  and  _459
REMARK  191  A    between atoms: _464  and  _466
REMARK  192  A    between atoms: _466  and  _467
REMARK  193  A    between atoms: _466  and  _469
REMARK  194  A    between atoms: _472  and  _474
REMARK  195  A    between atoms: _474  and  _475
REMARK  196  A    between atoms: _474  and  _477
REMARK  197  A    between atoms: _477  and  _478
REMARK  198  A    between atoms: _483  and  _485
REMARK  199  A    between atoms: _485  and  _486
REMARK  200  A    between atoms: _485  and  _488
REMARK  201  A    between atoms: _488  and  _489
REMARK  202  A    between atoms: _492  and  _494
REMARK  203  A    between atoms: _494  and  _495
REMARK  204  A    between atoms: _494  and  _497
REMARK  205  A    between atoms: _497  and  _498
REMARK  206  A    between atoms: _501  and  _503
REMARK  207  A    between atoms: _503  and  _504
REMARK  208  A    between atoms: _506  and  _508
REMARK  209  A    between atoms: _508  and  _509
REMARK  210  A    between atoms: _508  and  _511
REMARK  211  A    between atoms: _511  and  _512
REMARK  212  A    between atoms: _512  and  _513
REMARK  213  A    between atoms: _513  and  _514
REMARK  214  A    between atoms: _523  and  _525
REMARK  215  A    between atoms: _525  and  _526
REMARK  216  A    between atoms: _525  and  _528
REMARK  217  A    between atoms: _528  and  _529
REMARK                            x       y       z     vdW  Elec       q    Type
REMARK                         _______ _______ _______ _____ _____    ______ ____
ROOT
ATOM      1  O   HOH     1      19.967  32.277  23.236  0.00  0.00    +0.000 OA
ENDROOT
TORSDOF 0
REMARK  Name = ../refined-set-2016/3o99/3o99_pocket.pdb
REMARK  217 active torsions:
REMARK  status: ('A' for Active; 'I' for Inactive)
REMARK    1  A    between atoms: _1  and  _3
REMARK    2  A    between atoms: _3  and  _4
REMARK    3  A    between atoms: _3  and  _6
REMARK    4  A    between atoms: _6  and  _7
REMARK    5  A    between atoms: _7  and  _8
REMARK    6  A    between atoms: _8  and  _9
REMARK    7  A    between atoms: _18  and  _20
REMARK    8  A    between atoms: _20  and  _21
REMARK    9  A    between atoms: _20  and  _23
REMARK   10  A    between atoms: _23  and  _24
REMARK   11  A    between atoms: _27  and  _29
REMARK   12  A    between atoms: _29  and  _30
REMARK   13  A    between atoms: _29  and  _32
REMARK   14  A    between atoms: _32  and  _33
REMARK   15  A    between atoms: _36  and  _38
REMARK   16  A    between atoms: _38  and  _39
REMARK   17  A    between atoms: _38  and  _41
REMARK   18  A    between atoms: _41  and  _42
REMARK   19  A    between atoms: _45  and  _47
REMARK   20  A    between atoms: _47  and  _48
REMARK   21  A    between atoms: _47  and  _50
REMARK   22  A    between atoms: _50  and  _51
REMARK   23  A    between atoms: _54  and  _56
REMARK   24  A    between atoms: _56  and  _57
REMARK   25  A    between atoms: _59  and  _61
REMARK   26  A    between atoms: _61  and  _62
REMARK   27  A    between atoms: _65  and  _67
REMARK   28  A    between atoms: _67  and  _68
REMARK   29  A    between atoms: _67  and  _70
REMARK   30  A    between atoms: _70  and  _71
REMARK   31  A    between atoms: _74  and  _76
REMARK   32  A    between atoms: _76  and  _77
REMARK   33  A    between atoms: _76  and  _79
REMARK   34  A    between atoms: _79  and  _80
REMARK   35  A    between atoms: _83  and  _85
REMARK   36  A    between atoms: _85  and  _86
REMARK   37  A    between atoms: _85  and  _88
REMARK   38  A    between atoms: _88  and  _89
REMARK   39  A    between atoms: _92  and  _94
REMARK   40  A    between atoms: _94  and  _95
REMARK   41  A    between atoms: _94  and  _97
REMARK   42  A    between atoms: _100  and  _102
REMARK   43  A    between atoms: _102  and  _103
REMARK   44  A    between atoms: _102  and  _105
REMARK   45  A    between atoms: _105  and  _106
REMARK   46  A    between atoms: _109  and  _111
REMARK   47  A    between atoms: _111  and  _112
REMARK   48  A    between atoms: _114  and  _116
REMARK   49  A    between atoms: _116  and  _117
REMARK   50  A    between atoms: _119  and  _121
REMARK   51  A    between atoms: _121  and  _122
REMARK   52  A    between atoms: _121  and  _124
REMARK   53  A    between atoms: _124  and  _125
REMARK   54  A    between atoms: _128  and  _130
REMARK   55  A    between atoms: _130  and  _131
REMARK   56  A    between atoms: _133  and  _135
REMARK   57  A    between atoms: _135  and  _136
REMARK   58  A    between atoms: _138  and  _140
REMARK   59  A    between atoms: _140  and  _141
REMARK   60  A    between atoms: _140  and  _143
REMARK   61  A    between atoms: _143  and  _144
REMARK   62  A    between atoms: _147  and  _149
REMARK   63  A    between atoms: _149  and  _150
REMARK   64  A    between atoms: _149  and  _152
REMARK   65  A    between atoms: _152  and  _153
REMARK   66  A    between atoms: _156  and  _158
REMARK   67  A    between atoms: _158  and  _159
REMARK   68  A    between atoms: _158  and  _161
REMARK   69  A    between atoms: _161  and  _162
REMARK   70  A    between atoms: _166  and  _167
REMARK   71  A    between atoms: _172  and  _174
REMARK   72  A    between atoms: _174  and  _175
REMARK   73  A    between atoms: _174  and  _177
REMARK   74  A    between atoms: _180  and  _182
REMARK   75  A    between atoms: _182  and  _183
REMARK   76  A    between atoms: _182  and  _185
REMARK   77  A    between atoms: _185  and  _186
REMARK   78  A    between atoms: _191  and  _193
REMARK   79  A    between atoms: _193  and  _194
REMARK   80  A    between atoms: _193  and  _196
REMARK   81  A    between atoms: _196  and  _197
REMARK   82  A    between atoms: _200  and  _202
REMARK   83  A    between atoms: _202  and  _203
REMARK   84  A    between atoms: _202  and  _205
REMARK   85  A    between atoms: _205  and  _206
REMARK   86  A    between atoms: _209  and  _211
REMARK   87  A    between atoms: _211  and  _212
REMARK   88  A    between atoms: _214  and  _216
REMARK   89  A    between atoms: _216  and  _217
REMARK   90  A    between atoms: _216  and  _219
REMARK   91  A    between atoms: _219  and  _220
REMARK   92  A    between atoms: _220  and  _221
REMARK   93  A    between atoms: _221  and  _222
REMARK   94  A    between atoms: _231  and  _233
REMARK   95  A    between atoms: _233  and  _234
REMARK   96  A    between atoms: _233  and  _236
REMARK   97  A    between atoms: _236  and  _237
REMARK   98  A    between atoms: _242  and  _244
REMARK   99  A    between atoms: _244  and  _245
REMARK  100  A    between atoms: _244  and  _247
REMARK  101  A    between atoms: _247  and  _248
REMARK  102  A    between atoms: _248  and  _249
REMARK  103  A    between atoms: _249  and  _250
REMARK  104  A    between atoms: _259  and  _261
REMARK  105  A    between atoms: _261  and  _262
REMARK  106  A    between atoms: _261  and  _264
REMARK  107  A    between atoms: _264  and  _265
REMARK  108  A    between atoms: _268  and  _270
REMARK  109  A    between atoms: _270  and  _271
REMARK  110  A    between atoms: _270  and  _273
REMARK  111  A    between atoms: _273  and  _274
REMARK  112  A    between atoms: _277  and  _279
REMARK  113  A    between atoms: _279  and  _280
REMARK  114  A    between atoms: _279  and  _282
REMARK  115  A    between atoms: _282  and  _283
REMARK  116  A    between atoms: _286  and  _288
REMARK  117  A    between atoms: _288  and  _289
REMARK  118  A    between atoms: _288  and  _291
REMARK  119  A    between atoms: _291  and  _292
REMARK  120  A    between atoms: _295  and  _297
REMARK  121  A    between atoms: _297  and  _298
REMARK  122  A    between atoms: _300  and  _302
REMARK  123  A    between atoms: _302  and  _303
REMARK  124  A    between atoms: _306  and  _308
REMARK  125  A    between atoms: _308  and  _309
REMARK  126  A    between atoms: _308  and  _311
REMARK  127  A    between atoms: _311  and  _312
REMARK  128  A    between atoms: _315  and  _317
REMARK  129  A    between atoms: _317  and  _318
REMARK  130  A    between atoms: _317  and  _320
REMARK  131  A    between atoms: _320  and  _321
REMARK  132  A    between atoms: _324  and  _326
REMARK  133  A    between atoms: _326  and  _327
REMARK  134  A    between atoms: _326  and  _329
REMARK  135  A    between atoms: _329  and  _330
REMARK  136  A    between atoms: _333  and  _335
REMARK  137  A    between atoms: _335  and  _336
REMARK  138  A    between atoms: _335  and  _338
REMARK  139  A    between atoms: _341  and  _343
REMARK  140  A    between atoms: _343  and  _344
REMARK  141  A    between atoms: _343  and  _346
REMARK  142  A    between atoms: _346  and  _347
REMARK  143  A    between atoms: _350  and  _352
REMARK  144  A    between atoms: _352  and  _353
REMARK  145  A    between atoms: _352  and  _355
REMARK  146  A    between atoms: _355  and  _356
REMARK  147  A    between atoms: _356  and  _357
REMARK  148  A    between atoms: _357  and  _358
REMARK  149  A    between atoms: _358  and  _359
REMARK  150  A    between atoms: _363  and  _365
REMARK  151  A    between atoms: _365  and  _366
REMARK  152  A    between atoms: _365  and  _368
REMARK  153  A    between atoms: _368  and  _369
REMARK  154  A    between atoms: _369  and  _370
REMARK  155  A    between atoms: _372  and  _374
REMARK  156  A    between atoms: _374  and  _375
REMARK  157  A    between atoms: _374  and  _377
REMARK  158  A    between atoms: _377  and  _378
REMARK  159  A    between atoms: _381  and  _383
REMARK  160  A    between atoms: _383  and  _384
REMARK  161  A    between atoms: _386  and  _388
REMARK  162  A    between atoms: _388  and  _389
REMARK  163  A    between atoms: _391  and  _393
REMARK  164  A    between atoms: _393  and  _394
REMARK  165  A    between atoms: _393  and  _396
REMARK  166  A    between atoms: _396  and  _397
REMARK  167  A    between atoms: _400  and  _402
REMARK  168  A    between atoms: _402  and  _403
REMARK  169  A    between atoms: _405  and  _407
REMARK  170  A    between atoms: _407  and  _408
REMARK  171  A    between atoms: _410  and  _412
REMARK  172  A    between atoms: _412  and  _413
REMARK  173  A    between atoms: _412  and  _415
REMARK  174  A    between atoms: _415  and  _416
REMARK  175  A    between atoms: _422  and  _424
REMARK  176  A    between atoms: _424  and  _425
REMARK  177  A    between atoms: _424  and  _427
REMARK  178  A    between atoms: _427  and  _428
REMARK  179  A    between atoms: _431  and  _433
REMARK  180  A    between atoms: _433  and  _434
REMARK  181  A    between atoms: _433  and  _436
REMARK  182  A    between atoms: _439  and  _441
REMARK  183  A    between atoms: _441  and  _442
REMARK  184  A    between atoms: _441  and  _444
REMARK  185  A    between atoms: _444  and  _445
REMARK  186  A    between atoms: _448  and  _450
REMARK  187  A    between atoms: _450  and  _451
REMARK  188  A    between atoms: _450  and  _453
REMARK  189  A    between atoms: _453  and  _454
REMARK  190  A    between atoms: _458  and  _459
REMARK  191  A    between atoms: _464  and  _466
REMARK  192  A    between atoms: _466  and  _467
REMARK  193  A    between atoms: _466  and  _469
REMARK  194  A    between atoms: _472  and  _474
REMARK  195  A    between atoms: _474  and  _475
REMARK  196  A    between atoms: _474  and  _477
REMARK  197  A    between atoms: _477  and  _478
REMARK  198  A    between atoms: _483  and  _485
REMARK  199  A    between atoms: _485  and  _486
REMARK  200  A    between atoms: _485  and  _488
REMARK  201  A    between atoms: _488  and  _489
REMARK  202  A    between atoms: _492  and  _494
REMARK  203  A    between atoms: _494  and  _495
REMARK  204  A    between atoms: _494  and  _497
REMARK  205  A    between atoms: _497  and  _498
REMARK  206  A    between atoms: _501  and  _503
REMARK  207  A    between atoms: _503  and  _504
REMARK  208  A    between atoms: _506  and  _508
REMARK  209  A    between atoms: _508  and  _509
REMARK  210  A    between atoms: _508  and  _511
REMARK  211  A    between atoms: _511  and  _512
REMARK  212  A    between atoms: _512  and  _513
REMARK  213  A    between atoms: _513  and  _514
REMARK  214  A    between atoms: _523  and  _525
REMARK  215  A    between atoms: _525  and  _526
REMARK  216  A    between atoms: _525  and  _528
REMARK  217  A    between atoms: _528  and  _529
REMARK                            x       y       z     vdW  Elec       q    Type
REMARK                         _______ _______ _______ _____ _____    ______ ____
ROOT
ATOM      1  O   HOH     1      17.396  39.626  16.500  0.00  0.00    +0.000 OA
ENDROOT
TORSDOF 0
REMARK  Name = ../refined-set-2016/3o99/3o99_pocket.pdb
REMARK  217 active torsions:
REMARK  status: ('A' for Active; 'I' for Inactive)
REMARK    1  A    between atoms: _1  and  _3
REMARK    2  A    between atoms: _3  and  _4
REMARK    3  A    between atoms: _3  and  _6
REMARK    4  A    between atoms: _6  and  _7
REMARK    5  A    between atoms: _7  and  _8
REMARK    6  A    between atoms: _8  and  _9
REMARK    7  A    between atoms: _18  and  _20
REMARK    8  A    between atoms: _20  and  _21
REMARK    9  A    between atoms: _20  and  _23
REMARK   10  A    between atoms: _23  and  _24
REMARK   11  A    between atoms: _27  and  _29
REMARK   12  A    between atoms: _29  and  _30
REMARK   13  A    between atoms: _29  and  _32
REMARK   14  A    between atoms: _32  and  _33
REMARK   15  A    between atoms: _36  and  _38
REMARK   16  A    between atoms: _38  and  _39
REMARK   17  A    between atoms: _38  and  _41
REMARK   18  A    between atoms: _41  and  _42
REMARK   19  A    between atoms: _45  and  _47
REMARK   20  A    between atoms: _47  and  _48
REMARK   21  A    between atoms: _47  and  _50
REMARK   22  A    between atoms: _50  and  _51
REMARK   23  A    between atoms: _54  and  _56
REMARK   24  A    between atoms: _56  and  _57
REMARK   25  A    between atoms: _59  and  _61
REMARK   26  A    between atoms: _61  and  _62
REMARK   27  A    between atoms: _65  and  _67
REMARK   28  A    between atoms: _67  and  _68
REMARK   29  A    between atoms: _67  and  _70
REMARK   30  A    between atoms: _70  and  _71
REMARK   31  A    between atoms: _74  and  _76
REMARK   32  A    between atoms: _76  and  _77
REMARK   33  A    between atoms: _76  and  _79
REMARK   34  A    between atoms: _79  and  _80
REMARK   35  A    between atoms: _83  and  _85
REMARK   36  A    between atoms: _85  and  _86
REMARK   37  A    between atoms: _85  and  _88
REMARK   38  A    between atoms: _88  and  _89
REMARK   39  A    between atoms: _92  and  _94
REMARK   40  A    between atoms: _94  and  _95
REMARK   41  A    between atoms: _94  and  _97
REMARK   42  A    between atoms: _100  and  _102
REMARK   43  A    between atoms: _102  and  _103
REMARK   44  A    between atoms: _102  and  _105
REMARK   45  A    between atoms: _105  and  _106
REMARK   46  A    between atoms: _109  and  _111
REMARK   47  A    between atoms: _111  and  _112
REMARK   48  A    between atoms: _114  and  _116
REMARK   49  A    between atoms: _116  and  _117
REMARK   50  A    between atoms: _119  and  _121
REMARK   51  A    between atoms: _121  and  _122
REMARK   52  A    between atoms: _121  and  _124
REMARK   53  A    between atoms: _124  and  _125
REMARK   54  A    between atoms: _128  and  _130
REMARK   55  A    between atoms: _130  and  _131
REMARK   56  A    between atoms: _133  and  _135
REMARK   57  A    between atoms: _135  and  _136
REMARK   58  A    between atoms: _138  and  _140
REMARK   59  A    between atoms: _140  and  _141
REMARK   60  A    between atoms: _140  and  _143
REMARK   61  A    between atoms: _143  and  _144
REMARK   62  A    between atoms: _147  and  _149
REMARK   63  A    between atoms: _149  and  _150
REMARK   64  A    between atoms: _149  and  _152
REMARK   65  A    between atoms: _152  and  _153
REMARK   66  A    between atoms: _156  and  _158
REMARK   67  A    between atoms: _158  and  _159
REMARK   68  A    between atoms: _158  and  _161
REMARK   69  A    between atoms: _161  and  _162
REMARK   70  A    between atoms: _166  and  _167
REMARK   71  A    between atoms: _172  and  _174
REMARK   72  A    between atoms: _174  and  _175
REMARK   73  A    between atoms: _174  and  _177
REMARK   74  A    between atoms: _180  and  _182
REMARK   75  A    between atoms: _182  and  _183
REMARK   76  A    between atoms: _182  and  _185
REMARK   77  A    between atoms: _185  and  _186
REMARK   78  A    between atoms: _191  and  _193
REMARK   79  A    between atoms: _193  and  _194
REMARK   80  A    between atoms: _193  and  _196
REMARK   81  A    between atoms: _196  and  _197
REMARK   82  A    between atoms: _200  and  _202
REMARK   83  A    between atoms: _202  and  _203
REMARK   84  A    between atoms: _202  and  _205
REMARK   85  A    between atoms: _205  and  _206
REMARK   86  A    between atoms: _209  and  _211
REMARK   87  A    between atoms: _211  and  _212
REMARK   88  A    between atoms: _214  and  _216
REMARK   89  A    between atoms: _216  and  _217
REMARK   90  A    between atoms: _216  and  _219
REMARK   91  A    between atoms: _219  and  _220
REMARK   92  A    between atoms: _220  and  _221
REMARK   93  A    between atoms: _221  and  _222
REMARK   94  A    between atoms: _231  and  _233
REMARK   95  A    between atoms: _233  and  _234
REMARK   96  A    between atoms: _233  and  _236
REMARK   97  A    between atoms: _236  and  _237
REMARK   98  A    between atoms: _242  and  _244
REMARK   99  A    between atoms: _244  and  _245
REMARK  100  A    between atoms: _244  and  _247
REMARK  101  A    between atoms: _247  and  _248
REMARK  102  A    between atoms: _248  and  _249
REMARK  103  A    between atoms: _249  and  _250
REMARK  104  A    between atoms: _259  and  _261
REMARK  105  A    between atoms: _261  and  _262
REMARK  106  A    between atoms: _261  and  _264
REMARK  107  A    between atoms: _264  and  _265
REMARK  108  A    between atoms: _268  and  _270
REMARK  109  A    between atoms: _270  and  _271
REMARK  110  A    between atoms: _270  and  _273
REMARK  111  A    between atoms: _273  and  _274
REMARK  112  A    between atoms: _277  and  _279
REMARK  113  A    between atoms: _279  and  _280
REMARK  114  A    between atoms: _279  and  _282
REMARK  115  A    between atoms: _282  and  _283
REMARK  116  A    between atoms: _286  and  _288
REMARK  117  A    between atoms: _288  and  _289
REMARK  118  A    between atoms: _288  and  _291
REMARK  119  A    between atoms: _291  and  _292
REMARK  120  A    between atoms: _295  and  _297
REMARK  121  A    between atoms: _297  and  _298
REMARK  122  A    between atoms: _300  and  _302
REMARK  123  A    between atoms: _302  and  _303
REMARK  124  A    between atoms: _306  and  _308
REMARK  125  A    between atoms: _308  and  _309
REMARK  126  A    between atoms: _308  and  _311
REMARK  127  A    between atoms: _311  and  _312
REMARK  128  A    between atoms: _315  and  _317
REMARK  129  A    between atoms: _317  and  _318
REMARK  130  A    between atoms: _317  and  _320
REMARK  131  A    between atoms: _320  and  _321
REMARK  132  A    between atoms: _324  and  _326
REMARK  133  A    between atoms: _326  and  _327
REMARK  134  A    between atoms: _326  and  _329
REMARK  135  A    between atoms: _329  and  _330
REMARK  136  A    between atoms: _333  and  _335
REMARK  137  A    between atoms: _335  and  _336
REMARK  138  A    between atoms: _335  and  _338
REMARK  139  A    between atoms: _341  and  _343
REMARK  140  A    between atoms: _343  and  _344
REMARK  141  A    between atoms: _343  and  _346
REMARK  142  A    between atoms: _346  and  _347
REMARK  143  A    between atoms: _350  and  _352
REMARK  144  A    between atoms: _352  and  _353
REMARK  145  A    between atoms: _352  and  _355
REMARK  146  A    between atoms: _355  and  _356
REMARK  147  A    between atoms: _356  and  _357
REMARK  148  A    between atoms: _357  and  _358
REMARK  149  A    between atoms: _358  and  _359
REMARK  150  A    between atoms: _363  and  _365
REMARK  151  A    between atoms: _365  and  _366
REMARK  152  A    between atoms: _365  and  _368
REMARK  153  A    between atoms: _368  and  _369
REMARK  154  A    between atoms: _369  and  _370
REMARK  155  A    between atoms: _372  and  _374
REMARK  156  A    between atoms: _374  and  _375
REMARK  157  A    between atoms: _374  and  _377
REMARK  158  A    between atoms: _377  and  _378
REMARK  159  A    between atoms: _381  and  _383
REMARK  160  A    between atoms: _383  and  _384
REMARK  161  A    between atoms: _386  and  _388
REMARK  162  A    between atoms: _388  and  _389
REMARK  163  A    between atoms: _391  and  _393
REMARK  164  A    between atoms: _393  and  _394
REMARK  165  A    between atoms: _393  and  _396
REMARK  166  A    between atoms: _396  and  _397
REMARK  167  A    between atoms: _400  and  _402
REMARK  168  A    between atoms: _402  and  _403
REMARK  169  A    between atoms: _405  and  _407
REMARK  170  A    between atoms: _407  and  _408
REMARK  171  A    between atoms: _410  and  _412
REMARK  172  A    between atoms: _412  and  _413
REMARK  173  A    between atoms: _412  and  _415
REMARK  174  A    between atoms: _415  and  _416
REMARK  175  A    between atoms: _422  and  _424
REMARK  176  A    between atoms: _424  and  _425
REMARK  177  A    between atoms: _424  and  _427
REMARK  178  A    between atoms: _427  and  _428
REMARK  179  A    between atoms: _431  and  _433
REMARK  180  A    between atoms: _433  and  _434
REMARK  181  A    between atoms: _433  and  _436
REMARK  182  A    between atoms: _439  and  _441
REMARK  183  A    between atoms: _441  and  _442
REMARK  184  A    between atoms: _441  and  _444
REMARK  185  A    between atoms: _444  and  _445
REMARK  186  A    between atoms: _448  and  _450
REMARK  187  A    between atoms: _450  and  _451
REMARK  188  A    between atoms: _450  and  _453
REMARK  189  A    between atoms: _453  and  _454
REMARK  190  A    between atoms: _458  and  _459
REMARK  191  A    between atoms: _464  and  _466
REMARK  192  A    between atoms: _466  and  _467
REMARK  193  A    between atoms: _466  and  _469
REMARK  194  A    between atoms: _472  and  _474
REMARK  195  A    between atoms: _474  and  _475
REMARK  196  A    between atoms: _474  and  _477
REMARK  197  A    between atoms: _477  and  _478
REMARK  198  A    between atoms: _483  and  _485
REMARK  199  A    between atoms: _485  and  _486
REMARK  200  A    between atoms: _485  and  _488
REMARK  201  A    between atoms: _488  and  _489
REMARK  202  A    between atoms: _492  and  _494
REMARK  203  A    between atoms: _494  and  _495
REMARK  204  A    between atoms: _494  and  _497
REMARK  205  A    between atoms: _497  and  _498
REMARK  206  A    between atoms: _501  and  _503
REMARK  207  A    between atoms: _503  and  _504
REMARK  208  A    between atoms: _506  and  _508
REMARK  209  A    between atoms: _508  and  _509
REMARK  210  A    between atoms: _508  and  _511
REMARK  211  A    between atoms: _511  and  _512
REMARK  212  A    between atoms: _512  and  _513
REMARK  213  A    between atoms: _513  and  _514
REMARK  214  A    between atoms: _523  and  _525
REMARK  215  A    between atoms: _525  and  _526
REMARK  216  A    between atoms: _525  and  _528
REMARK  217  A    between atoms: _528  and  _529
REMARK                            x       y       z     vdW  Elec       q    Type
REMARK                         _______ _______ _______ _____ _____    ______ ____
ROOT
ATOM      1  O   HOH     1      20.369  34.175  21.455  0.00  0.00    +0.000 OA
ENDROOT
TORSDOF 0
REMARK  Name = ../refined-set-2016/3o99/3o99_pocket.pdb
REMARK  217 active torsions:
REMARK  status: ('A' for Active; 'I' for Inactive)
REMARK    1  A    between atoms: _1  and  _3
REMARK    2  A    between atoms: _3  and  _4
REMARK    3  A    between atoms: _3  and  _6
REMARK    4  A    between atoms: _6  and  _7
REMARK    5  A    between atoms: _7  and  _8
REMARK    6  A    between atoms: _8  and  _9
REMARK    7  A    between atoms: _18  and  _20
REMARK    8  A    between atoms: _20  and  _21
REMARK    9  A    between atoms: _20  and  _23
REMARK   10  A    between atoms: _23  and  _24
REMARK   11  A    between atoms: _27  and  _29
REMARK   12  A    between atoms: _29  and  _30
REMARK   13  A    between atoms: _29  and  _32
REMARK   14  A    between atoms: _32  and  _33
REMARK   15  A    between atoms: _36  and  _38
REMARK   16  A    between atoms: _38  and  _39
REMARK   17  A    between atoms: _38  and  _41
REMARK   18  A    between atoms: _41  and  _42
REMARK   19  A    between atoms: _45  and  _47
REMARK   20  A    between atoms: _47  and  _48
REMARK   21  A    between atoms: _47  and  _50
REMARK   22  A    between atoms: _50  and  _51
REMARK   23  A    between atoms: _54  and  _56
REMARK   24  A    between atoms: _56  and  _57
REMARK   25  A    between atoms: _59  and  _61
REMARK   26  A    between atoms: _61  and  _62
REMARK   27  A    between atoms: _65  and  _67
REMARK   28  A    between atoms: _67  and  _68
REMARK   29  A    between atoms: _67  and  _70
REMARK   30  A    between atoms: _70  and  _71
REMARK   31  A    between atoms: _74  and  _76
REMARK   32  A    between atoms: _76  and  _77
REMARK   33  A    between atoms: _76  and  _79
REMARK   34  A    between atoms: _79  and  _80
REMARK   35  A    between atoms: _83  and  _85
REMARK   36  A    between atoms: _85  and  _86
REMARK   37  A    between atoms: _85  and  _88
REMARK   38  A    between atoms: _88  and  _89
REMARK   39  A    between atoms: _92  and  _94
REMARK   40  A    between atoms: _94  and  _95
REMARK   41  A    between atoms: _94  and  _97
REMARK   42  A    between atoms: _100  and  _102
REMARK   43  A    between atoms: _102  and  _103
REMARK   44  A    between atoms: _102  and  _105
REMARK   45  A    between atoms: _105  and  _106
REMARK   46  A    between atoms: _109  and  _111
REMARK   47  A    between atoms: _111  and  _112
REMARK   48  A    between atoms: _114  and  _116
REMARK   49  A    between atoms: _116  and  _117
REMARK   50  A    between atoms: _119  and  _121
REMARK   51  A    between atoms: _121  and  _122
REMARK   52  A    between atoms: _121  and  _124
REMARK   53  A    between atoms: _124  and  _125
REMARK   54  A    between atoms: _128  and  _130
REMARK   55  A    between atoms: _130  and  _131
REMARK   56  A    between atoms: _133  and  _135
REMARK   57  A    between atoms: _135  and  _136
REMARK   58  A    between atoms: _138  and  _140
REMARK   59  A    between atoms: _140  and  _141
REMARK   60  A    between atoms: _140  and  _143
REMARK   61  A    between atoms: _143  and  _144
REMARK   62  A    between atoms: _147  and  _149
REMARK   63  A    between atoms: _149  and  _150
REMARK   64  A    between atoms: _149  and  _152
REMARK   65  A    between atoms: _152  and  _153
REMARK   66  A    between atoms: _156  and  _158
REMARK   67  A    between atoms: _158  and  _159
REMARK   68  A    between atoms: _158  and  _161
REMARK   69  A    between atoms: _161  and  _162
REMARK   70  A    between atoms: _166  and  _167
REMARK   71  A    between atoms: _172  and  _174
REMARK   72  A    between atoms: _174  and  _175
REMARK   73  A    between atoms: _174  and  _177
REMARK   74  A    between atoms: _180  and  _182
REMARK   75  A    between atoms: _182  and  _183
REMARK   76  A    between atoms: _182  and  _185
REMARK   77  A    between atoms: _185  and  _186
REMARK   78  A    between atoms: _191  and  _193
REMARK   79  A    between atoms: _193  and  _194
REMARK   80  A    between atoms: _193  and  _196
REMARK   81  A    between atoms: _196  and  _197
REMARK   82  A    between atoms: _200  and  _202
REMARK   83  A    between atoms: _202  and  _203
REMARK   84  A    between atoms: _202  and  _205
REMARK   85  A    between atoms: _205  and  _206
REMARK   86  A    between atoms: _209  and  _211
REMARK   87  A    between atoms: _211  and  _212
REMARK   88  A    between atoms: _214  and  _216
REMARK   89  A    between atoms: _216  and  _217
REMARK   90  A    between atoms: _216  and  _219
REMARK   91  A    between atoms: _219  and  _220
REMARK   92  A    between atoms: _220  and  _221
REMARK   93  A    between atoms: _221  and  _222
REMARK   94  A    between atoms: _231  and  _233
REMARK   95  A    between atoms: _233  and  _234
REMARK   96  A    between atoms: _233  and  _236
REMARK   97  A    between atoms: _236  and  _237
REMARK   98  A    between atoms: _242  and  _244
REMARK   99  A    between atoms: _244  and  _245
REMARK  100  A    between atoms: _244  and  _247
REMARK  101  A    between atoms: _247  and  _248
REMARK  102  A    between atoms: _248  and  _249
REMARK  103  A    between atoms: _249  and  _250
REMARK  104  A    between atoms: _259  and  _261
REMARK  105  A    between atoms: _261  and  _262
REMARK  106  A    between atoms: _261  and  _264
REMARK  107  A    between atoms: _264  and  _265
REMARK  108  A    between atoms: _268  and  _270
REMARK  109  A    between atoms: _270  and  _271
REMARK  110  A    between atoms: _270  and  _273
REMARK  111  A    between atoms: _273  and  _274
REMARK  112  A    between atoms: _277  and  _279
REMARK  113  A    between atoms: _279  and  _280
REMARK  114  A    between atoms: _279  and  _282
REMARK  115  A    between atoms: _282  and  _283
REMARK  116  A    between atoms: _286  and  _288
REMARK  117  A    between atoms: _288  and  _289
REMARK  118  A    between atoms: _288  and  _291
REMARK  119  A    between atoms: _291  and  _292
REMARK  120  A    between atoms: _295  and  _297
REMARK  121  A    between atoms: _297  and  _298
REMARK  122  A    between atoms: _300  and  _302
REMARK  123  A    between atoms: _302  and  _303
REMARK  124  A    between atoms: _306  and  _308
REMARK  125  A    between atoms: _308  and  _309
REMARK  126  A    between atoms: _308  and  _311
REMARK  127  A    between atoms: _311  and  _312
REMARK  128  A    between atoms: _315  and  _317
REMARK  129  A    between atoms: _317  and  _318
REMARK  130  A    between atoms: _317  and  _320
REMARK  131  A    between atoms: _320  and  _321
REMARK  132  A    between atoms: _324  and  _326
REMARK  133  A    between atoms: _326  and  _327
REMARK  134  A    between atoms: _326  and  _329
REMARK  135  A    between atoms: _329  and  _330
REMARK  136  A    between atoms: _333  and  _335
REMARK  137  A    between atoms: _335  and  _336
REMARK  138  A    between atoms: _335  and  _338
REMARK  139  A    between atoms: _341  and  _343
REMARK  140  A    between atoms: _343  and  _344
REMARK  141  A    between atoms: _343  and  _346
REMARK  142  A    between atoms: _346  and  _347
REMARK  143  A    between atoms: _350  and  _352
REMARK  144  A    between atoms: _352  and  _353
REMARK  145  A    between atoms: _352  and  _355
REMARK  146  A    between atoms: _355  and  _356
REMARK  147  A    between atoms: _356  and  _357
REMARK  148  A    between atoms: _357  and  _358
REMARK  149  A    between atoms: _358  and  _359
REMARK  150  A    between atoms: _363  and  _365
REMARK  151  A    between atoms: _365  and  _366
REMARK  152  A    between atoms: _365  and  _368
REMARK  153  A    between atoms: _368  and  _369
REMARK  154  A    between atoms: _369  and  _370
REMARK  155  A    between atoms: _372  and  _374
REMARK  156  A    between atoms: _374  and  _375
REMARK  157  A    between atoms: _374  and  _377
REMARK  158  A    between atoms: _377  and  _378
REMARK  159  A    between atoms: _381  and  _383
REMARK  160  A    between atoms: _383  and  _384
REMARK  161  A    between atoms: _386  and  _388
REMARK  162  A    between atoms: _388  and  _389
REMARK  163  A    between atoms: _391  and  _393
REMARK  164  A    between atoms: _393  and  _394
REMARK  165  A    between atoms: _393  and  _396
REMARK  166  A    between atoms: _396  and  _397
REMARK  167  A    between atoms: _400  and  _402
REMARK  168  A    between atoms: _402  and  _403
REMARK  169  A    between atoms: _405  and  _407
REMARK  170  A    between atoms: _407  and  _408
REMARK  171  A    between atoms: _410  and  _412
REMARK  172  A    between atoms: _412  and  _413
REMARK  173  A    between atoms: _412  and  _415
REMARK  174  A    between atoms: _415  and  _416
REMARK  175  A    between atoms: _422  and  _424
REMARK  176  A    between atoms: _424  and  _425
REMARK  177  A    between atoms: _424  and  _427
REMARK  178  A    between atoms: _427  and  _428
REMARK  179  A    between atoms: _431  and  _433
REMARK  180  A    between atoms: _433  and  _434
REMARK  181  A    between atoms: _433  and  _436
REMARK  182  A    between atoms: _439  and  _441
REMARK  183  A    between atoms: _441  and  _442
REMARK  184  A    between atoms: _441  and  _444
REMARK  185  A    between atoms: _444  and  _445
REMARK  186  A    between atoms: _448  and  _450
REMARK  187  A    between atoms: _450  and  _451
REMARK  188  A    between atoms: _450  and  _453
REMARK  189  A    between atoms: _453  and  _454
REMARK  190  A    between atoms: _458  and  _459
REMARK  191  A    between atoms: _464  and  _466
REMARK  192  A    between atoms: _466  and  _467
REMARK  193  A    between atoms: _466  and  _469
REMARK  194  A    between atoms: _472  and  _474
REMARK  195  A    between atoms: _474  and  _475
REMARK  196  A    between atoms: _474  and  _477
REMARK  197  A    between atoms: _477  and  _478
REMARK  198  A    between atoms: _483  and  _485
REMARK  199  A    between atoms: _485  and  _486
REMARK  200  A    between atoms: _485  and  _488
REMARK  201  A    between atoms: _488  and  _489
REMARK  202  A    between atoms: _492  and  _494
REMARK  203  A    between atoms: _494  and  _495
REMARK  204  A    between atoms: _494  and  _497
REMARK  205  A    between atoms: _497  and  _498
REMARK  206  A    between atoms: _501  and  _503
REMARK  207  A    between atoms: _503  and  _504
REMARK  208  A    between atoms: _506  and  _508
REMARK  209  A    between atoms: _508  and  _509
REMARK  210  A    between atoms: _508  and  _511
REMARK  211  A    between atoms: _511  and  _512
REMARK  212  A    between atoms: _512  and  _513
REMARK  213  A    between atoms: _513  and  _514
REMARK  214  A    between atoms: _523  and  _525
REMARK  215  A    between atoms: _525  and  _526
REMARK  216  A    between atoms: _525  and  _528
REMARK  217  A    between atoms: _528  and  _529
REMARK                            x       y       z     vdW  Elec       q    Type
REMARK                         _______ _______ _______ _____ _____    ______ ____
ROOT
ATOM      1  O   HOH     1      14.206  34.864  26.034  0.00  0.00    +0.000 OA
ENDROOT
TORSDOF 0
REMARK  Name = ../refined-set-2016/3o99/3o99_pocket.pdb
REMARK  217 active torsions:
REMARK  status: ('A' for Active; 'I' for Inactive)
REMARK    1  A    between atoms: _1  and  _3
REMARK    2  A    between atoms: _3  and  _4
REMARK    3  A    between atoms: _3  and  _6
REMARK    4  A    between atoms: _6  and  _7
REMARK    5  A    between atoms: _7  and  _8
REMARK    6  A    between atoms: _8  and  _9
REMARK    7  A    between atoms: _18  and  _20
REMARK    8  A    between atoms: _20  and  _21
REMARK    9  A    between atoms: _20  and  _23
REMARK   10  A    between atoms: _23  and  _24
REMARK   11  A    between atoms: _27  and  _29
REMARK   12  A    between atoms: _29  and  _30
REMARK   13  A    between atoms: _29  and  _32
REMARK   14  A    between atoms: _32  and  _33
REMARK   15  A    between atoms: _36  and  _38
REMARK   16  A    between atoms: _38  and  _39
REMARK   17  A    between atoms: _38  and  _41
REMARK   18  A    between atoms: _41  and  _42
REMARK   19  A    between atoms: _45  and  _47
REMARK   20  A    between atoms: _47  and  _48
REMARK   21  A    between atoms: _47  and  _50
REMARK   22  A    between atoms: _50  and  _51
REMARK   23  A    between atoms: _54  and  _56
REMARK   24  A    between atoms: _56  and  _57
REMARK   25  A    between atoms: _59  and  _61
REMARK   26  A    between atoms: _61  and  _62
REMARK   27  A    between atoms: _65  and  _67
REMARK   28  A    between atoms: _67  and  _68
REMARK   29  A    between atoms: _67  and  _70
REMARK   30  A    between atoms: _70  and  _71
REMARK   31  A    between atoms: _74  and  _76
REMARK   32  A    between atoms: _76  and  _77
REMARK   33  A    between atoms: _76  and  _79
REMARK   34  A    between atoms: _79  and  _80
REMARK   35  A    between atoms: _83  and  _85
REMARK   36  A    between atoms: _85  and  _86
REMARK   37  A    between atoms: _85  and  _88
REMARK   38  A    between atoms: _88  and  _89
REMARK   39  A    between atoms: _92  and  _94
REMARK   40  A    between atoms: _94  and  _95
REMARK   41  A    between atoms: _94  and  _97
REMARK   42  A    between atoms: _100  and  _102
REMARK   43  A    between atoms: _102  and  _103
REMARK   44  A    between atoms: _102  and  _105
REMARK   45  A    between atoms: _105  and  _106
REMARK   46  A    between atoms: _109  and  _111
REMARK   47  A    between atoms: _111  and  _112
REMARK   48  A    between atoms: _114  and  _116
REMARK   49  A    between atoms: _116  and  _117
REMARK   50  A    between atoms: _119  and  _121
REMARK   51  A    between atoms: _121  and  _122
REMARK   52  A    between atoms: _121  and  _124
REMARK   53  A    between atoms: _124  and  _125
REMARK   54  A    between atoms: _128  and  _130
REMARK   55  A    between atoms: _130  and  _131
REMARK   56  A    between atoms: _133  and  _135
REMARK   57  A    between atoms: _135  and  _136
REMARK   58  A    between atoms: _138  and  _140
REMARK   59  A    between atoms: _140  and  _141
REMARK   60  A    between atoms: _140  and  _143
REMARK   61  A    between atoms: _143  and  _144
REMARK   62  A    between atoms: _147  and  _149
REMARK   63  A    between atoms: _149  and  _150
REMARK   64  A    between atoms: _149  and  _152
REMARK   65  A    between atoms: _152  and  _153
REMARK   66  A    between atoms: _156  and  _158
REMARK   67  A    between atoms: _158  and  _159
REMARK   68  A    between atoms: _158  and  _161
REMARK   69  A    between atoms: _161  and  _162
REMARK   70  A    between atoms: _166  and  _167
REMARK   71  A    between atoms: _172  and  _174
REMARK   72  A    between atoms: _174  and  _175
REMARK   73  A    between atoms: _174  and  _177
REMARK   74  A    between atoms: _180  and  _182
REMARK   75  A    between atoms: _182  and  _183
REMARK   76  A    between atoms: _182  and  _185
REMARK   77  A    between atoms: _185  and  _186
REMARK   78  A    between atoms: _191  and  _193
REMARK   79  A    between atoms: _193  and  _194
REMARK   80  A    between atoms: _193  and  _196
REMARK   81  A    between atoms: _196  and  _197
REMARK   82  A    between atoms: _200  and  _202
REMARK   83  A    between atoms: _202  and  _203
REMARK   84  A    between atoms: _202  and  _205
REMARK   85  A    between atoms: _205  and  _206
REMARK   86  A    between atoms: _209  and  _211
REMARK   87  A    between atoms: _211  and  _212
REMARK   88  A    between atoms: _214  and  _216
REMARK   89  A    between atoms: _216  and  _217
REMARK   90  A    between atoms: _216  and  _219
REMARK   91  A    between atoms: _219  and  _220
REMARK   92  A    between atoms: _220  and  _221
REMARK   93  A    between atoms: _221  and  _222
REMARK   94  A    between atoms: _231  and  _233
REMARK   95  A    between atoms: _233  and  _234
REMARK   96  A    between atoms: _233  and  _236
REMARK   97  A    between atoms: _236  and  _237
REMARK   98  A    between atoms: _242  and  _244
REMARK   99  A    between atoms: _244  and  _245
REMARK  100  A    between atoms: _244  and  _247
REMARK  101  A    between atoms: _247  and  _248
REMARK  102  A    between atoms: _248  and  _249
REMARK  103  A    between atoms: _249  and  _250
REMARK  104  A    between atoms: _259  and  _261
REMARK  105  A    between atoms: _261  and  _262
REMARK  106  A    between atoms: _261  and  _264
REMARK  107  A    between atoms: _264  and  _265
REMARK  108  A    between atoms: _268  and  _270
REMARK  109  A    between atoms: _270  and  _271
REMARK  110  A    between atoms: _270  and  _273
REMARK  111  A    between atoms: _273  and  _274
REMARK  112  A    between atoms: _277  and  _279
REMARK  113  A    between atoms: _279  and  _280
REMARK  114  A    between atoms: _279  and  _282
REMARK  115  A    between atoms: _282  and  _283
REMARK  116  A    between atoms: _286  and  _288
REMARK  117  A    between atoms: _288  and  _289
REMARK  118  A    between atoms: _288  and  _291
REMARK  119  A    between atoms: _291  and  _292
REMARK  120  A    between atoms: _295  and  _297
REMARK  121  A    between atoms: _297  and  _298
REMARK  122  A    between atoms: _300  and  _302
REMARK  123  A    between atoms: _302  and  _303
REMARK  124  A    between atoms: _306  and  _308
REMARK  125  A    between atoms: _308  and  _309
REMARK  126  A    between atoms: _308  and  _311
REMARK  127  A    between atoms: _311  and  _312
REMARK  128  A    between atoms: _315  and  _317
REMARK  129  A    between atoms: _317  and  _318
REMARK  130  A    between atoms: _317  and  _320
REMARK  131  A    between atoms: _320  and  _321
REMARK  132  A    between atoms: _324  and  _326
REMARK  133  A    between atoms: _326  and  _327
REMARK  134  A    between atoms: _326  and  _329
REMARK  135  A    between atoms: _329  and  _330
REMARK  136  A    between atoms: _333  and  _335
REMARK  137  A    between atoms: _335  and  _336
REMARK  138  A    between atoms: _335  and  _338
REMARK  139  A    between atoms: _341  and  _343
REMARK  140  A    between atoms: _343  and  _344
REMARK  141  A    between atoms: _343  and  _346
REMARK  142  A    between atoms: _346  and  _347
REMARK  143  A    between atoms: _350  and  _352
REMARK  144  A    between atoms: _352  and  _353
REMARK  145  A    between atoms: _352  and  _355
REMARK  146  A    between atoms: _355  and  _356
REMARK  147  A    between atoms: _356  and  _357
REMARK  148  A    between atoms: _357  and  _358
REMARK  149  A    between atoms: _358  and  _359
REMARK  150  A    between atoms: _363  and  _365
REMARK  151  A    between atoms: _365  and  _366
REMARK  152  A    between atoms: _365  and  _368
REMARK  153  A    between atoms: _368  and  _369
REMARK  154  A    between atoms: _369  and  _370
REMARK  155  A    between atoms: _372  and  _374
REMARK  156  A    between atoms: _374  and  _375
REMARK  157  A    between atoms: _374  and  _377
REMARK  158  A    between atoms: _377  and  _378
REMARK  159  A    between atoms: _381  and  _383
REMARK  160  A    between atoms: _383  and  _384
REMARK  161  A    between atoms: _386  and  _388
REMARK  162  A    between atoms: _388  and  _389
REMARK  163  A    between atoms: _391  and  _393
REMARK  164  A    between atoms: _393  and  _394
REMARK  165  A    between atoms: _393  and  _396
REMARK  166  A    between atoms: _396  and  _397
REMARK  167  A    between atoms: _400  and  _402
REMARK  168  A    between atoms: _402  and  _403
REMARK  169  A    between atoms: _405  and  _407
REMARK  170  A    between atoms: _407  and  _408
REMARK  171  A    between atoms: _410  and  _412
REMARK  172  A    between atoms: _412  and  _413
REMARK  173  A    between atoms: _412  and  _415
REMARK  174  A    between atoms: _415  and  _416
REMARK  175  A    between atoms: _422  and  _424
REMARK  176  A    between atoms: _424  and  _425
REMARK  177  A    between atoms: _424  and  _427
REMARK  178  A    between atoms: _427  and  _428
REMARK  179  A    between atoms: _431  and  _433
REMARK  180  A    between atoms: _433  and  _434
REMARK  181  A    between atoms: _433  and  _436
REMARK  182  A    between atoms: _439  and  _441
REMARK  183  A    between atoms: _441  and  _442
REMARK  184  A    between atoms: _441  and  _444
REMARK  185  A    between atoms: _444  and  _445
REMARK  186  A    between atoms: _448  and  _450
REMARK  187  A    between atoms: _450  and  _451
REMARK  188  A    between atoms: _450  and  _453
REMARK  189  A    between atoms: _453  and  _454
REMARK  190  A    between atoms: _458  and  _459
REMARK  191  A    between atoms: _464  and  _466
REMARK  192  A    between atoms: _466  and  _467
REMARK  193  A    between atoms: _466  and  _469
REMARK  194  A    between atoms: _472  and  _474
REMARK  195  A    between atoms: _474  and  _475
REMARK  196  A    between atoms: _474  and  _477
REMARK  197  A    between atoms: _477  and  _478
REMARK  198  A    between atoms: _483  and  _485
REMARK  199  A    between atoms: _485  and  _486
REMARK  200  A    between atoms: _485  and  _488
REMARK  201  A    between atoms: _488  and  _489
REMARK  202  A    between atoms: _492  and  _494
REMARK  203  A    between atoms: _494  and  _495
REMARK  204  A    between atoms: _494  and  _497
REMARK  205  A    between atoms: _497  and  _498
REMARK  206  A    between atoms: _501  and  _503
REMARK  207  A    between atoms: _503  and  _504
REMARK  208  A    between atoms: _506  and  _508
REMARK  209  A    between atoms: _508  and  _509
REMARK  210  A    between atoms: _508  and  _511
REMARK  211  A    between atoms: _511  and  _512
REMARK  212  A    between atoms: _512  and  _513
REMARK  213  A    between atoms: _513  and  _514
REMARK  214  A    between atoms: _523  and  _525
REMARK  215  A    between atoms: _525  and  _526
REMARK  216  A    between atoms: _525  and  _528
REMARK  217  A    between atoms: _528  and  _529
REMARK                            x       y       z     vdW  Elec       q    Type
REMARK                         _______ _______ _______ _____ _____    ______ ____
ROOT
ATOM      1  O   HOH     1      18.119  34.751  19.355  0.00  0.00    +0.000 OA
ENDROOT
TORSDOF 0
REMARK  Name = ../refined-set-2016/3o99/3o99_pocket.pdb
REMARK  217 active torsions:
REMARK  status: ('A' for Active; 'I' for Inactive)
REMARK    1  A    between atoms: _1  and  _3
REMARK    2  A    between atoms: _3  and  _4
REMARK    3  A    between atoms: _3  and  _6
REMARK    4  A    between atoms: _6  and  _7
REMARK    5  A    between atoms: _7  and  _8
REMARK    6  A    between atoms: _8  and  _9
REMARK    7  A    between atoms: _18  and  _20
REMARK    8  A    between atoms: _20  and  _21
REMARK    9  A    between atoms: _20  and  _23
REMARK   10  A    between atoms: _23  and  _24
REMARK   11  A    between atoms: _27  and  _29
REMARK   12  A    between atoms: _29  and  _30
REMARK   13  A    between atoms: _29  and  _32
REMARK   14  A    between atoms: _32  and  _33
REMARK   15  A    between atoms: _36  and  _38
REMARK   16  A    between atoms: _38  and  _39
REMARK   17  A    between atoms: _38  and  _41
REMARK   18  A    between atoms: _41  and  _42
REMARK   19  A    between atoms: _45  and  _47
REMARK   20  A    between atoms: _47  and  _48
REMARK   21  A    between atoms: _47  and  _50
REMARK   22  A    between atoms: _50  and  _51
REMARK   23  A    between atoms: _54  and  _56
REMARK   24  A    between atoms: _56  and  _57
REMARK   25  A    between atoms: _59  and  _61
REMARK   26  A    between atoms: _61  and  _62
REMARK   27  A    between atoms: _65  and  _67
REMARK   28  A    between atoms: _67  and  _68
REMARK   29  A    between atoms: _67  and  _70
REMARK   30  A    between atoms: _70  and  _71
REMARK   31  A    between atoms: _74  and  _76
REMARK   32  A    between atoms: _76  and  _77
REMARK   33  A    between atoms: _76  and  _79
REMARK   34  A    between atoms: _79  and  _80
REMARK   35  A    between atoms: _83  and  _85
REMARK   36  A    between atoms: _85  and  _86
REMARK   37  A    between atoms: _85  and  _88
REMARK   38  A    between atoms: _88  and  _89
REMARK   39  A    between atoms: _92  and  _94
REMARK   40  A    between atoms: _94  and  _95
REMARK   41  A    between atoms: _94  and  _97
REMARK   42  A    between atoms: _100  and  _102
REMARK   43  A    between atoms: _102  and  _103
REMARK   44  A    between atoms: _102  and  _105
REMARK   45  A    between atoms: _105  and  _106
REMARK   46  A    between atoms: _109  and  _111
REMARK   47  A    between atoms: _111  and  _112
REMARK   48  A    between atoms: _114  and  _116
REMARK   49  A    between atoms: _116  and  _117
REMARK   50  A    between atoms: _119  and  _121
REMARK   51  A    between atoms: _121  and  _122
REMARK   52  A    between atoms: _121  and  _124
REMARK   53  A    between atoms: _124  and  _125
REMARK   54  A    between atoms: _128  and  _130
REMARK   55  A    between atoms: _130  and  _131
REMARK   56  A    between atoms: _133  and  _135
REMARK   57  A    between atoms: _135  and  _136
REMARK   58  A    between atoms: _138  and  _140
REMARK   59  A    between atoms: _140  and  _141
REMARK   60  A    between atoms: _140  and  _143
REMARK   61  A    between atoms: _143  and  _144
REMARK   62  A    between atoms: _147  and  _149
REMARK   63  A    between atoms: _149  and  _150
REMARK   64  A    between atoms: _149  and  _152
REMARK   65  A    between atoms: _152  and  _153
REMARK   66  A    between atoms: _156  and  _158
REMARK   67  A    between atoms: _158  and  _159
REMARK   68  A    between atoms: _158  and  _161
REMARK   69  A    between atoms: _161  and  _162
REMARK   70  A    between atoms: _166  and  _167
REMARK   71  A    between atoms: _172  and  _174
REMARK   72  A    between atoms: _174  and  _175
REMARK   73  A    between atoms: _174  and  _177
REMARK   74  A    between atoms: _180  and  _182
REMARK   75  A    between atoms: _182  and  _183
REMARK   76  A    between atoms: _182  and  _185
REMARK   77  A    between atoms: _185  and  _186
REMARK   78  A    between atoms: _191  and  _193
REMARK   79  A    between atoms: _193  and  _194
REMARK   80  A    between atoms: _193  and  _196
REMARK   81  A    between atoms: _196  and  _197
REMARK   82  A    between atoms: _200  and  _202
REMARK   83  A    between atoms: _202  and  _203
REMARK   84  A    between atoms: _202  and  _205
REMARK   85  A    between atoms: _205  and  _206
REMARK   86  A    between atoms: _209  and  _211
REMARK   87  A    between atoms: _211  and  _212
REMARK   88  A    between atoms: _214  and  _216
REMARK   89  A    between atoms: _216  and  _217
REMARK   90  A    between atoms: _216  and  _219
REMARK   91  A    between atoms: _219  and  _220
REMARK   92  A    between atoms: _220  and  _221
REMARK   93  A    between atoms: _221  and  _222
REMARK   94  A    between atoms: _231  and  _233
REMARK   95  A    between atoms: _233  and  _234
REMARK   96  A    between atoms: _233  and  _236
REMARK   97  A    between atoms: _236  and  _237
REMARK   98  A    between atoms: _242  and  _244
REMARK   99  A    between atoms: _244  and  _245
REMARK  100  A    between atoms: _244  and  _247
REMARK  101  A    between atoms: _247  and  _248
REMARK  102  A    between atoms: _248  and  _249
REMARK  103  A    between atoms: _249  and  _250
REMARK  104  A    between atoms: _259  and  _261
REMARK  105  A    between atoms: _261  and  _262
REMARK  106  A    between atoms: _261  and  _264
REMARK  107  A    between atoms: _264  and  _265
REMARK  108  A    between atoms: _268  and  _270
REMARK  109  A    between atoms: _270  and  _271
REMARK  110  A    between atoms: _270  and  _273
REMARK  111  A    between atoms: _273  and  _274
REMARK  112  A    between atoms: _277  and  _279
REMARK  113  A    between atoms: _279  and  _280
REMARK  114  A    between atoms: _279  and  _282
REMARK  115  A    between atoms: _282  and  _283
REMARK  116  A    between atoms: _286  and  _288
REMARK  117  A    between atoms: _288  and  _289
REMARK  118  A    between atoms: _288  and  _291
REMARK  119  A    between atoms: _291  and  _292
REMARK  120  A    between atoms: _295  and  _297
REMARK  121  A    between atoms: _297  and  _298
REMARK  122  A    between atoms: _300  and  _302
REMARK  123  A    between atoms: _302  and  _303
REMARK  124  A    between atoms: _306  and  _308
REMARK  125  A    between atoms: _308  and  _309
REMARK  126  A    between atoms: _308  and  _311
REMARK  127  A    between atoms: _311  and  _312
REMARK  128  A    between atoms: _315  and  _317
REMARK  129  A    between atoms: _317  and  _318
REMARK  130  A    between atoms: _317  and  _320
REMARK  131  A    between atoms: _320  and  _321
REMARK  132  A    between atoms: _324  and  _326
REMARK  133  A    between atoms: _326  and  _327
REMARK  134  A    between atoms: _326  and  _329
REMARK  135  A    between atoms: _329  and  _330
REMARK  136  A    between atoms: _333  and  _335
REMARK  137  A    between atoms: _335  and  _336
REMARK  138  A    between atoms: _335  and  _338
REMARK  139  A    between atoms: _341  and  _343
REMARK  140  A    between atoms: _343  and  _344
REMARK  141  A    between atoms: _343  and  _346
REMARK  142  A    between atoms: _346  and  _347
REMARK  143  A    between atoms: _350  and  _352
REMARK  144  A    between atoms: _352  and  _353
REMARK  145  A    between atoms: _352  and  _355
REMARK  146  A    between atoms: _355  and  _356
REMARK  147  A    between atoms: _356  and  _357
REMARK  148  A    between atoms: _357  and  _358
REMARK  149  A    between atoms: _358  and  _359
REMARK  150  A    between atoms: _363  and  _365
REMARK  151  A    between atoms: _365  and  _366
REMARK  152  A    between atoms: _365  and  _368
REMARK  153  A    between atoms: _368  and  _369
REMARK  154  A    between atoms: _369  and  _370
REMARK  155  A    between atoms: _372  and  _374
REMARK  156  A    between atoms: _374  and  _375
REMARK  157  A    between atoms: _374  and  _377
REMARK  158  A    between atoms: _377  and  _378
REMARK  159  A    between atoms: _381  and  _383
REMARK  160  A    between atoms: _383  and  _384
REMARK  161  A    between atoms: _386  and  _388
REMARK  162  A    between atoms: _388  and  _389
REMARK  163  A    between atoms: _391  and  _393
REMARK  164  A    between atoms: _393  and  _394
REMARK  165  A    between atoms: _393  and  _396
REMARK  166  A    between atoms: _396  and  _397
REMARK  167  A    between atoms: _400  and  _402
REMARK  168  A    between atoms: _402  and  _403
REMARK  169  A    between atoms: _405  and  _407
REMARK  170  A    between atoms: _407  and  _408
REMARK  171  A    between atoms: _410  and  _412
REMARK  172  A    between atoms: _412  and  _413
REMARK  173  A    between atoms: _412  and  _415
REMARK  174  A    between atoms: _415  and  _416
REMARK  175  A    between atoms: _422  and  _424
REMARK  176  A    between atoms: _424  and  _425
REMARK  177  A    between atoms: _424  and  _427
REMARK  178  A    between atoms: _427  and  _428
REMARK  179  A    between atoms: _431  and  _433
REMARK  180  A    between atoms: _433  and  _434
REMARK  181  A    between atoms: _433  and  _436
REMARK  182  A    between atoms: _439  and  _441
REMARK  183  A    between atoms: _441  and  _442
REMARK  184  A    between atoms: _441  and  _444
REMARK  185  A    between atoms: _444  and  _445
REMARK  186  A    between atoms: _448  and  _450
REMARK  187  A    between atoms: _450  and  _451
REMARK  188  A    between atoms: _450  and  _453
REMARK  189  A    between atoms: _453  and  _454
REMARK  190  A    between atoms: _458  and  _459
REMARK  191  A    between atoms: _464  and  _466
REMARK  192  A    between atoms: _466  and  _467
REMARK  193  A    between atoms: _466  and  _469
REMARK  194  A    between atoms: _472  and  _474
REMARK  195  A    between atoms: _474  and  _475
REMARK  196  A    between atoms: _474  and  _477
REMARK  197  A    between atoms: _477  and  _478
REMARK  198  A    between atoms: _483  and  _485
REMARK  199  A    between atoms: _485  and  _486
REMARK  200  A    between atoms: _485  and  _488
REMARK  201  A    between atoms: _488  and  _489
REMARK  202  A    between atoms: _492  and  _494
REMARK  203  A    between atoms: _494  and  _495
REMARK  204  A    between atoms: _494  and  _497
REMARK  205  A    between atoms: _497  and  _498
REMARK  206  A    between atoms: _501  and  _503
REMARK  207  A    between atoms: _503  and  _504
REMARK  208  A    between atoms: _506  and  _508
REMARK  209  A    between atoms: _508  and  _509
REMARK  210  A    between atoms: _508  and  _511
REMARK  211  A    between atoms: _511  and  _512
REMARK  212  A    between atoms: _512  and  _513
REMARK  213  A    between atoms: _513  and  _514
REMARK  214  A    between atoms: _523  and  _525
REMARK  215  A    between atoms: _525  and  _526
REMARK  216  A    between atoms: _525  and  _528
REMARK  217  A    between atoms: _528  and  _529
REMARK                            x       y       z     vdW  Elec       q    Type
REMARK                         _______ _______ _______ _____ _____    ______ ____
ROOT
ATOM      1  O   HOH     1      12.348  20.886  10.577  0.00  0.00    +0.000 OA
ENDROOT
TORSDOF 0
REMARK  Name = ../refined-set-2016/3o99/3o99_pocket.pdb
REMARK  217 active torsions:
REMARK  status: ('A' for Active; 'I' for Inactive)
REMARK    1  A    between atoms: _1  and  _3
REMARK    2  A    between atoms: _3  and  _4
REMARK    3  A    between atoms: _3  and  _6
REMARK    4  A    between atoms: _6  and  _7
REMARK    5  A    between atoms: _7  and  _8
REMARK    6  A    between atoms: _8  and  _9
REMARK    7  A    between atoms: _18  and  _20
REMARK    8  A    between atoms: _20  and  _21
REMARK    9  A    between atoms: _20  and  _23
REMARK   10  A    between atoms: _23  and  _24
REMARK   11  A    between atoms: _27  and  _29
REMARK   12  A    between atoms: _29  and  _30
REMARK   13  A    between atoms: _29  and  _32
REMARK   14  A    between atoms: _32  and  _33
REMARK   15  A    between atoms: _36  and  _38
REMARK   16  A    between atoms: _38  and  _39
REMARK   17  A    between atoms: _38  and  _41
REMARK   18  A    between atoms: _41  and  _42
REMARK   19  A    between atoms: _45  and  _47
REMARK   20  A    between atoms: _47  and  _48
REMARK   21  A    between atoms: _47  and  _50
REMARK   22  A    between atoms: _50  and  _51
REMARK   23  A    between atoms: _54  and  _56
REMARK   24  A    between atoms: _56  and  _57
REMARK   25  A    between atoms: _59  and  _61
REMARK   26  A    between atoms: _61  and  _62
REMARK   27  A    between atoms: _65  and  _67
REMARK   28  A    between atoms: _67  and  _68
REMARK   29  A    between atoms: _67  and  _70
REMARK   30  A    between atoms: _70  and  _71
REMARK   31  A    between atoms: _74  and  _76
REMARK   32  A    between atoms: _76  and  _77
REMARK   33  A    between atoms: _76  and  _79
REMARK   34  A    between atoms: _79  and  _80
REMARK   35  A    between atoms: _83  and  _85
REMARK   36  A    between atoms: _85  and  _86
REMARK   37  A    between atoms: _85  and  _88
REMARK   38  A    between atoms: _88  and  _89
REMARK   39  A    between atoms: _92  and  _94
REMARK   40  A    between atoms: _94  and  _95
REMARK   41  A    between atoms: _94  and  _97
REMARK   42  A    between atoms: _100  and  _102
REMARK   43  A    between atoms: _102  and  _103
REMARK   44  A    between atoms: _102  and  _105
REMARK   45  A    between atoms: _105  and  _106
REMARK   46  A    between atoms: _109  and  _111
REMARK   47  A    between atoms: _111  and  _112
REMARK   48  A    between atoms: _114  and  _116
REMARK   49  A    between atoms: _116  and  _117
REMARK   50  A    between atoms: _119  and  _121
REMARK   51  A    between atoms: _121  and  _122
REMARK   52  A    between atoms: _121  and  _124
REMARK   53  A    between atoms: _124  and  _125
REMARK   54  A    between atoms: _128  and  _130
REMARK   55  A    between atoms: _130  and  _131
REMARK   56  A    between atoms: _133  and  _135
REMARK   57  A    between atoms: _135  and  _136
REMARK   58  A    between atoms: _138  and  _140
REMARK   59  A    between atoms: _140  and  _141
REMARK   60  A    between atoms: _140  and  _143
REMARK   61  A    between atoms: _143  and  _144
REMARK   62  A    between atoms: _147  and  _149
REMARK   63  A    between atoms: _149  and  _150
REMARK   64  A    between atoms: _149  and  _152
REMARK   65  A    between atoms: _152  and  _153
REMARK   66  A    between atoms: _156  and  _158
REMARK   67  A    between atoms: _158  and  _159
REMARK   68  A    between atoms: _158  and  _161
REMARK   69  A    between atoms: _161  and  _162
REMARK   70  A    between atoms: _166  and  _167
REMARK   71  A    between atoms: _172  and  _174
REMARK   72  A    between atoms: _174  and  _175
REMARK   73  A    between atoms: _174  and  _177
REMARK   74  A    between atoms: _180  and  _182
REMARK   75  A    between atoms: _182  and  _183
REMARK   76  A    between atoms: _182  and  _185
REMARK   77  A    between atoms: _185  and  _186
REMARK   78  A    between atoms: _191  and  _193
REMARK   79  A    between atoms: _193  and  _194
REMARK   80  A    between atoms: _193  and  _196
REMARK   81  A    between atoms: _196  and  _197
REMARK   82  A    between atoms: _200  and  _202
REMARK   83  A    between atoms: _202  and  _203
REMARK   84  A    between atoms: _202  and  _205
REMARK   85  A    between atoms: _205  and  _206
REMARK   86  A    between atoms: _209  and  _211
REMARK   87  A    between atoms: _211  and  _212
REMARK   88  A    between atoms: _214  and  _216
REMARK   89  A    between atoms: _216  and  _217
REMARK   90  A    between atoms: _216  and  _219
REMARK   91  A    between atoms: _219  and  _220
REMARK   92  A    between atoms: _220  and  _221
REMARK   93  A    between atoms: _221  and  _222
REMARK   94  A    between atoms: _231  and  _233
REMARK   95  A    between atoms: _233  and  _234
REMARK   96  A    between atoms: _233  and  _236
REMARK   97  A    between atoms: _236  and  _237
REMARK   98  A    between atoms: _242  and  _244
REMARK   99  A    between atoms: _244  and  _245
REMARK  100  A    between atoms: _244  and  _247
REMARK  101  A    between atoms: _247  and  _248
REMARK  102  A    between atoms: _248  and  _249
REMARK  103  A    between atoms: _249  and  _250
REMARK  104  A    between atoms: _259  and  _261
REMARK  105  A    between atoms: _261  and  _262
REMARK  106  A    between atoms: _261  and  _264
REMARK  107  A    between atoms: _264  and  _265
REMARK  108  A    between atoms: _268  and  _270
REMARK  109  A    between atoms: _270  and  _271
REMARK  110  A    between atoms: _270  and  _273
REMARK  111  A    between atoms: _273  and  _274
REMARK  112  A    between atoms: _277  and  _279
REMARK  113  A    between atoms: _279  and  _280
REMARK  114  A    between atoms: _279  and  _282
REMARK  115  A    between atoms: _282  and  _283
REMARK  116  A    between atoms: _286  and  _288
REMARK  117  A    between atoms: _288  and  _289
REMARK  118  A    between atoms: _288  and  _291
REMARK  119  A    between atoms: _291  and  _292
REMARK  120  A    between atoms: _295  and  _297
REMARK  121  A    between atoms: _297  and  _298
REMARK  122  A    between atoms: _300  and  _302
REMARK  123  A    between atoms: _302  and  _303
REMARK  124  A    between atoms: _306  and  _308
REMARK  125  A    between atoms: _308  and  _309
REMARK  126  A    between atoms: _308  and  _311
REMARK  127  A    between atoms: _311  and  _312
REMARK  128  A    between atoms: _315  and  _317
REMARK  129  A    between atoms: _317  and  _318
REMARK  130  A    between atoms: _317  and  _320
REMARK  131  A    between atoms: _320  and  _321
REMARK  132  A    between atoms: _324  and  _326
REMARK  133  A    between atoms: _326  and  _327
REMARK  134  A    between atoms: _326  and  _329
REMARK  135  A    between atoms: _329  and  _330
REMARK  136  A    between atoms: _333  and  _335
REMARK  137  A    between atoms: _335  and  _336
REMARK  138  A    between atoms: _335  and  _338
REMARK  139  A    between atoms: _341  and  _343
REMARK  140  A    between atoms: _343  and  _344
REMARK  141  A    between atoms: _343  and  _346
REMARK  142  A    between atoms: _346  and  _347
REMARK  143  A    between atoms: _350  and  _352
REMARK  144  A    between atoms: _352  and  _353
REMARK  145  A    between atoms: _352  and  _355
REMARK  146  A    between atoms: _355  and  _356
REMARK  147  A    between atoms: _356  and  _357
REMARK  148  A    between atoms: _357  and  _358
REMARK  149  A    between atoms: _358  and  _359
REMARK  150  A    between atoms: _363  and  _365
REMARK  151  A    between atoms: _365  and  _366
REMARK  152  A    between atoms: _365  and  _368
REMARK  153  A    between atoms: _368  and  _369
REMARK  154  A    between atoms: _369  and  _370
REMARK  155  A    between atoms: _372  and  _374
REMARK  156  A    between atoms: _374  and  _375
REMARK  157  A    between atoms: _374  and  _377
REMARK  158  A    between atoms: _377  and  _378
REMARK  159  A    between atoms: _381  and  _383
REMARK  160  A    between atoms: _383  and  _384
REMARK  161  A    between atoms: _386  and  _388
REMARK  162  A    between atoms: _388  and  _389
REMARK  163  A    between atoms: _391  and  _393
REMARK  164  A    between atoms: _393  and  _394
REMARK  165  A    between atoms: _393  and  _396
REMARK  166  A    between atoms: _396  and  _397
REMARK  167  A    between atoms: _400  and  _402
REMARK  168  A    between atoms: _402  and  _403
REMARK  169  A    between atoms: _405  and  _407
REMARK  170  A    between atoms: _407  and  _408
REMARK  171  A    between atoms: _410  and  _412
REMARK  172  A    between atoms: _412  and  _413
REMARK  173  A    between atoms: _412  and  _415
REMARK  174  A    between atoms: _415  and  _416
REMARK  175  A    between atoms: _422  and  _424
REMARK  176  A    between atoms: _424  and  _425
REMARK  177  A    between atoms: _424  and  _427
REMARK  178  A    between atoms: _427  and  _428
REMARK  179  A    between atoms: _431  and  _433
REMARK  180  A    between atoms: _433  and  _434
REMARK  181  A    between atoms: _433  and  _436
REMARK  182  A    between atoms: _439  and  _441
REMARK  183  A    between atoms: _441  and  _442
REMARK  184  A    between atoms: _441  and  _444
REMARK  185  A    between atoms: _444  and  _445
REMARK  186  A    between atoms: _448  and  _450
REMARK  187  A    between atoms: _450  and  _451
REMARK  188  A    between atoms: _450  and  _453
REMARK  189  A    between atoms: _453  and  _454
REMARK  190  A    between atoms: _458  and  _459
REMARK  191  A    between atoms: _464  and  _466
REMARK  192  A    between atoms: _466  and  _467
REMARK  193  A    between atoms: _466  and  _469
REMARK  194  A    between atoms: _472  and  _474
REMARK  195  A    between atoms: _474  and  _475
REMARK  196  A    between atoms: _474  and  _477
REMARK  197  A    between atoms: _477  and  _478
REMARK  198  A    between atoms: _483  and  _485
REMARK  199  A    between atoms: _485  and  _486
REMARK  200  A    between atoms: _485  and  _488
REMARK  201  A    between atoms: _488  and  _489
REMARK  202  A    between atoms: _492  and  _494
REMARK  203  A    between atoms: _494  and  _495
REMARK  204  A    between atoms: _494  and  _497
REMARK  205  A    between atoms: _497  and  _498
REMARK  206  A    between atoms: _501  and  _503
REMARK  207  A    between atoms: _503  and  _504
REMARK  208  A    between atoms: _506  and  _508
REMARK  209  A    between atoms: _508  and  _509
REMARK  210  A    between atoms: _508  and  _511
REMARK  211  A    between atoms: _511  and  _512
REMARK  212  A    between atoms: _512  and  _513
REMARK  213  A    between atoms: _513  and  _514
REMARK  214  A    between atoms: _523  and  _525
REMARK  215  A    between atoms: _525  and  _526
REMARK  216  A    between atoms: _525  and  _528
REMARK  217  A    between atoms: _528  and  _529
REMARK                            x       y       z     vdW  Elec       q    Type
REMARK                         _______ _______ _______ _____ _____    ______ ____
ROOT
ATOM      1  O   HOH     1      13.691  37.771  19.428  0.00  0.00    +0.000 OA
ENDROOT
TORSDOF 0
