REMARK  Name = ../refined-set-2016/4xe1/4xe1_pocket.pdb
REMARK  144 active torsions:
REMARK  status: ('A' for Active; 'I' for Inactive)
REMARK    1  A    between atoms: _1  and  _3
REMARK    2  A    between atoms: _3  and  _4
REMARK    3  A    between atoms: _3  and  _6
REMARK    4  A    between atoms: _6  and  _7
REMARK    5  A    between atoms: _17  and  _19
REMARK    6  A    between atoms: _19  and  _20
REMARK    7  A    between atoms: _19  and  _22
REMARK    8  A    between atoms: _22  and  _23
REMARK    9  A    between atoms: _28  and  _29
REMARK   10  A    between atoms: _31  and  _33
REMARK   11  A    between atoms: _33  and  _34
REMARK   12  A    between atoms: _33  and  _36
REMARK   13  A    between atoms: _36  and  _37
REMARK   14  A    between atoms: _40  and  _41
REMARK   15  A    between atoms: _46  and  _48
REMARK   16  A    between atoms: _48  and  _49
REMARK   17  A    between atoms: _48  and  _51
REMARK   18  A    between atoms: _51  and  _52
REMARK   19  A    between atoms: _57  and  _59
REMARK   20  A    between atoms: _59  and  _60
REMARK   21  A    between atoms: _63  and  _65
REMARK   22  A    between atoms: _65  and  _66
REMARK   23  A    between atoms: _65  and  _68
REMARK   24  A    between atoms: _68  and  _69
REMARK   25  A    between atoms: _74  and  _76
REMARK   26  A    between atoms: _76  and  _77
REMARK   27  A    between atoms: _76  and  _79
REMARK   28  A    between atoms: _79  and  _80
REMARK   29  A    between atoms: _83  and  _85
REMARK   30  A    between atoms: _85  and  _86
REMARK   31  A    between atoms: _85  and  _88
REMARK   32  A    between atoms: _88  and  _89
REMARK   33  A    between atoms: _89  and  _90
REMARK   34  A    between atoms: _95  and  _97
REMARK   35  A    between atoms: _97  and  _98
REMARK   36  A    between atoms: _97  and  _100
REMARK   37  A    between atoms: _100  and  _101
REMARK   38  A    between atoms: _107  and  _109
REMARK   39  A    between atoms: _120  and  _123
REMARK   40  A    between atoms: _123  and  _124
REMARK   41  A    between atoms: _132  and  _133
REMARK   42  A    between atoms: _141  and  _143
REMARK   43  A    between atoms: _143  and  _144
REMARK   44  A    between atoms: _143  and  _146
REMARK   45  A    between atoms: _146  and  _147
REMARK   46  A    between atoms: _147  and  _148
REMARK   47  A    between atoms: _151  and  _153
REMARK   48  A    between atoms: _153  and  _154
REMARK   49  A    between atoms: _153  and  _156
REMARK   50  A    between atoms: _156  and  _157
REMARK   51  A    between atoms: _162  and  _164
REMARK   52  A    between atoms: _164  and  _165
REMARK   53  A    between atoms: _164  and  _167
REMARK   54  A    between atoms: _167  and  _168
REMARK   55  A    between atoms: _168  and  _169
REMARK   56  A    between atoms: _172  and  _174
REMARK   57  A    between atoms: _174  and  _175
REMARK   58  A    between atoms: _174  and  _177
REMARK   59  A    between atoms: _177  and  _178
REMARK   60  A    between atoms: _181  and  _183
REMARK   61  A    between atoms: _183  and  _184
REMARK   62  A    between atoms: _183  and  _186
REMARK   63  A    between atoms: _186  and  _187
REMARK   64  A    between atoms: _188  and  ZN_412
REMARK   65  A    between atoms: _192  and  _194
REMARK   66  A    between atoms: _194  and  _195
REMARK   67  A    between atoms: _194  and  _197
REMARK   68  A    between atoms: _197  and  _198
REMARK   69  A    between atoms: _201  and  _203
REMARK   70  A    between atoms: _203  and  _204
REMARK   71  A    between atoms: _203  and  _206
REMARK   72  A    between atoms: _209  and  _211
REMARK   73  A    between atoms: _211  and  _212
REMARK   74  A    between atoms: _211  and  _214
REMARK   75  A    between atoms: _214  and  _215
REMARK   76  A    between atoms: _220  and  _222
REMARK   77  A    between atoms: _222  and  _223
REMARK   78  A    between atoms: _222  and  _225
REMARK   79  A    between atoms: _225  and  _226
REMARK   80  A    between atoms: _236  and  _238
REMARK   81  A    between atoms: _238  and  _239
REMARK   82  A    between atoms: _238  and  _241
REMARK   83  A    between atoms: _241  and  _242
REMARK   84  A    between atoms: _248  and  _250
REMARK   85  A    between atoms: _250  and  _251
REMARK   86  A    between atoms: _250  and  _253
REMARK   87  A    between atoms: _256  and  _258
REMARK   88  A    between atoms: _258  and  _259
REMARK   89  A    between atoms: _258  and  _261
REMARK   90  A    between atoms: _261  and  _262
REMARK   91  A    between atoms: _265  and  _267
REMARK   92  A    between atoms: _267  and  _268
REMARK   93  A    between atoms: _271  and  _273
REMARK   94  A    between atoms: _273  and  _274
REMARK   95  A    between atoms: _273  and  _276
REMARK   96  A    between atoms: _279  and  _281
REMARK   97  A    between atoms: _281  and  _282
REMARK   98  A    between atoms: _281  and  _284
REMARK   99  A    between atoms: _284  and  _285
REMARK  100  A    between atoms: _288  and  _290
REMARK  101  A    between atoms: _290  and  _291
REMARK  102  A    between atoms: _293  and  _295
REMARK  103  A    between atoms: _295  and  _296
REMARK  104  A    between atoms: _295  and  _298
REMARK  105  A    between atoms: _298  and  _299
REMARK  106  A    between atoms: _301  and  _303
REMARK  107  A    between atoms: _303  and  _304
REMARK  108  A    between atoms: _303  and  _306
REMARK  109  A    between atoms: _306  and  _307
REMARK  110  A    between atoms: _310  and  _312
REMARK  111  A    between atoms: _312  and  _313
REMARK  112  A    between atoms: _312  and  _315
REMARK  113  A    between atoms: _315  and  _316
REMARK  114  A    between atoms: _319  and  _321
REMARK  115  A    between atoms: _321  and  _322
REMARK  116  A    between atoms: _321  and  _324
REMARK  117  A    between atoms: _324  and  _325
REMARK  118  A    between atoms: _329  and  _330
REMARK  119  A    between atoms: _336  and  _337
REMARK  120  A    between atoms: _342  and  _344
REMARK  121  A    between atoms: _344  and  _345
REMARK  122  A    between atoms: _344  and  _347
REMARK  123  A    between atoms: _347  and  _348
REMARK  124  A    between atoms: _351  and  _353
REMARK  125  A    between atoms: _353  and  _354
REMARK  126  A    between atoms: _353  and  _356
REMARK  127  A    between atoms: _356  and  _357
REMARK  128  A    between atoms: _360  and  _362
REMARK  129  A    between atoms: _362  and  _363
REMARK  130  A    between atoms: _362  and  _365
REMARK  131  A    between atoms: _368  and  _370
REMARK  132  A    between atoms: _370  and  _371
REMARK  133  A    between atoms: _370  and  _373
REMARK  134  A    between atoms: _373  and  _374
REMARK  135  A    between atoms: _384  and  _386
REMARK  136  A    between atoms: _386  and  _387
REMARK  137  A    between atoms: _386  and  _389
REMARK  138  A    between atoms: _389  and  _390
REMARK  139  A    between atoms: _395  and  _397
REMARK  140  A    between atoms: _397  and  _398
REMARK  141  A    between atoms: _397  and  _400
REMARK  142  A    between atoms: _400  and  _401
REMARK  143  A    between atoms: _401  and  _402
REMARK  144  A    between atoms: _402  and  _403
REMARK                            x       y       z     vdW  Elec       q    Type
REMARK                         _______ _______ _______ _____ _____    ______ ____
ROOT
ATOM      1  CG  TRP A   1       5.886  -0.083  11.972  0.00  0.00    -0.002 A 
ATOM      2  CD2 TRP A   1       4.547  -0.598  11.941  0.00  0.00    +0.013 A 
ATOM      3  CE3 TRP A   1       3.982  -1.851  12.211  0.00  0.00    +0.001 A 
ATOM      4  CZ3 TRP A   1       2.600  -2.007  12.075  0.00  0.00    +0.000 A 
ATOM      5  CH2 TRP A   1       1.790  -0.936  11.676  0.00  0.00    +0.001 A 
ATOM      6  CZ2 TRP A   1       2.320   0.300  11.402  0.00  0.00    +0.017 A 
ATOM      7  CE2 TRP A   1       3.705   0.456  11.538  0.00  0.00    +0.056 A 
ATOM      8  NE1 TRP A   1       4.495   1.559  11.335  0.00  0.00    -0.352 N 
ATOM      9  HE1 TRP A   1       4.160   2.495  11.031  0.00  0.00    +0.166 HD
ATOM     10  CD1 TRP A   1       5.798   1.226  11.598  0.00  0.00    +0.068 A 
ENDROOT
BRANCH   1  11
ATOM     11  CB  TRP A   1       7.144  -0.844  12.339  0.00  0.00    +0.053 C 
BRANCH  11  12
ATOM     12  CA  TRP A   1       7.813  -1.588  11.169  0.00  0.00    +0.137 C 
BRANCH  12  13
ATOM     13  N   TRP A   1       8.420  -0.660  10.223  0.00  0.00    -0.239 NA
ATOM     14  H   TRP A   1       8.277   0.364  10.331  0.00  0.00    +0.142 HD
ENDBRANCH  12  13
BRANCH  12  15
ATOM     15  C   TRP A   1       6.782  -2.442  10.446  0.00  0.00    +0.224 C 
ATOM     16  O   TRP A   1       6.207  -2.033   9.431  0.00  0.00    -0.287 OA
ENDBRANCH  12  15
ENDBRANCH  11  12
ENDBRANCH   1  11
TORSDOF 4
REMARK  Name = ../refined-set-2016/4xe1/4xe1_pocket.pdb
REMARK  144 active torsions:
REMARK  status: ('A' for Active; 'I' for Inactive)
REMARK    1  A    between atoms: _1  and  _3
REMARK    2  A    between atoms: _3  and  _4
REMARK    3  A    between atoms: _3  and  _6
REMARK    4  A    between atoms: _6  and  _7
REMARK    5  A    between atoms: _17  and  _19
REMARK    6  A    between atoms: _19  and  _20
REMARK    7  A    between atoms: _19  and  _22
REMARK    8  A    between atoms: _22  and  _23
REMARK    9  A    between atoms: _28  and  _29
REMARK   10  A    between atoms: _31  and  _33
REMARK   11  A    between atoms: _33  and  _34
REMARK   12  A    between atoms: _33  and  _36
REMARK   13  A    between atoms: _36  and  _37
REMARK   14  A    between atoms: _40  and  _41
REMARK   15  A    between atoms: _46  and  _48
REMARK   16  A    between atoms: _48  and  _49
REMARK   17  A    between atoms: _48  and  _51
REMARK   18  A    between atoms: _51  and  _52
REMARK   19  A    between atoms: _57  and  _59
REMARK   20  A    between atoms: _59  and  _60
REMARK   21  A    between atoms: _63  and  _65
REMARK   22  A    between atoms: _65  and  _66
REMARK   23  A    between atoms: _65  and  _68
REMARK   24  A    between atoms: _68  and  _69
REMARK   25  A    between atoms: _74  and  _76
REMARK   26  A    between atoms: _76  and  _77
REMARK   27  A    between atoms: _76  and  _79
REMARK   28  A    between atoms: _79  and  _80
REMARK   29  A    between atoms: _83  and  _85
REMARK   30  A    between atoms: _85  and  _86
REMARK   31  A    between atoms: _85  and  _88
REMARK   32  A    between atoms: _88  and  _89
REMARK   33  A    between atoms: _89  and  _90
REMARK   34  A    between atoms: _95  and  _97
REMARK   35  A    between atoms: _97  and  _98
REMARK   36  A    between atoms: _97  and  _100
REMARK   37  A    between atoms: _100  and  _101
REMARK   38  A    between atoms: _107  and  _109
REMARK   39  A    between atoms: _120  and  _123
REMARK   40  A    between atoms: _123  and  _124
REMARK   41  A    between atoms: _132  and  _133
REMARK   42  A    between atoms: _141  and  _143
REMARK   43  A    between atoms: _143  and  _144
REMARK   44  A    between atoms: _143  and  _146
REMARK   45  A    between atoms: _146  and  _147
REMARK   46  A    between atoms: _147  and  _148
REMARK   47  A    between atoms: _151  and  _153
REMARK   48  A    between atoms: _153  and  _154
REMARK   49  A    between atoms: _153  and  _156
REMARK   50  A    between atoms: _156  and  _157
REMARK   51  A    between atoms: _162  and  _164
REMARK   52  A    between atoms: _164  and  _165
REMARK   53  A    between atoms: _164  and  _167
REMARK   54  A    between atoms: _167  and  _168
REMARK   55  A    between atoms: _168  and  _169
REMARK   56  A    between atoms: _172  and  _174
REMARK   57  A    between atoms: _174  and  _175
REMARK   58  A    between atoms: _174  and  _177
REMARK   59  A    between atoms: _177  and  _178
REMARK   60  A    between atoms: _181  and  _183
REMARK   61  A    between atoms: _183  and  _184
REMARK   62  A    between atoms: _183  and  _186
REMARK   63  A    between atoms: _186  and  _187
REMARK   64  A    between atoms: _188  and  ZN_412
REMARK   65  A    between atoms: _192  and  _194
REMARK   66  A    between atoms: _194  and  _195
REMARK   67  A    between atoms: _194  and  _197
REMARK   68  A    between atoms: _197  and  _198
REMARK   69  A    between atoms: _201  and  _203
REMARK   70  A    between atoms: _203  and  _204
REMARK   71  A    between atoms: _203  and  _206
REMARK   72  A    between atoms: _209  and  _211
REMARK   73  A    between atoms: _211  and  _212
REMARK   74  A    between atoms: _211  and  _214
REMARK   75  A    between atoms: _214  and  _215
REMARK   76  A    between atoms: _220  and  _222
REMARK   77  A    between atoms: _222  and  _223
REMARK   78  A    between atoms: _222  and  _225
REMARK   79  A    between atoms: _225  and  _226
REMARK   80  A    between atoms: _236  and  _238
REMARK   81  A    between atoms: _238  and  _239
REMARK   82  A    between atoms: _238  and  _241
REMARK   83  A    between atoms: _241  and  _242
REMARK   84  A    between atoms: _248  and  _250
REMARK   85  A    between atoms: _250  and  _251
REMARK   86  A    between atoms: _250  and  _253
REMARK   87  A    between atoms: _256  and  _258
REMARK   88  A    between atoms: _258  and  _259
REMARK   89  A    between atoms: _258  and  _261
REMARK   90  A    between atoms: _261  and  _262
REMARK   91  A    between atoms: _265  and  _267
REMARK   92  A    between atoms: _267  and  _268
REMARK   93  A    between atoms: _271  and  _273
REMARK   94  A    between atoms: _273  and  _274
REMARK   95  A    between atoms: _273  and  _276
REMARK   96  A    between atoms: _279  and  _281
REMARK   97  A    between atoms: _281  and  _282
REMARK   98  A    between atoms: _281  and  _284
REMARK   99  A    between atoms: _284  and  _285
REMARK  100  A    between atoms: _288  and  _290
REMARK  101  A    between atoms: _290  and  _291
REMARK  102  A    between atoms: _293  and  _295
REMARK  103  A    between atoms: _295  and  _296
REMARK  104  A    between atoms: _295  and  _298
REMARK  105  A    between atoms: _298  and  _299
REMARK  106  A    between atoms: _301  and  _303
REMARK  107  A    between atoms: _303  and  _304
REMARK  108  A    between atoms: _303  and  _306
REMARK  109  A    between atoms: _306  and  _307
REMARK  110  A    between atoms: _310  and  _312
REMARK  111  A    between atoms: _312  and  _313
REMARK  112  A    between atoms: _312  and  _315
REMARK  113  A    between atoms: _315  and  _316
REMARK  114  A    between atoms: _319  and  _321
REMARK  115  A    between atoms: _321  and  _322
REMARK  116  A    between atoms: _321  and  _324
REMARK  117  A    between atoms: _324  and  _325
REMARK  118  A    between atoms: _329  and  _330
REMARK  119  A    between atoms: _336  and  _337
REMARK  120  A    between atoms: _342  and  _344
REMARK  121  A    between atoms: _344  and  _345
REMARK  122  A    between atoms: _344  and  _347
REMARK  123  A    between atoms: _347  and  _348
REMARK  124  A    between atoms: _351  and  _353
REMARK  125  A    between atoms: _353  and  _354
REMARK  126  A    between atoms: _353  and  _356
REMARK  127  A    between atoms: _356  and  _357
REMARK  128  A    between atoms: _360  and  _362
REMARK  129  A    between atoms: _362  and  _363
REMARK  130  A    between atoms: _362  and  _365
REMARK  131  A    between atoms: _368  and  _370
REMARK  132  A    between atoms: _370  and  _371
REMARK  133  A    between atoms: _370  and  _373
REMARK  134  A    between atoms: _373  and  _374
REMARK  135  A    between atoms: _384  and  _386
REMARK  136  A    between atoms: _386  and  _387
REMARK  137  A    between atoms: _386  and  _389
REMARK  138  A    between atoms: _389  and  _390
REMARK  139  A    between atoms: _395  and  _397
REMARK  140  A    between atoms: _397  and  _398
REMARK  141  A    between atoms: _397  and  _400
REMARK  142  A    between atoms: _400  and  _401
REMARK  143  A    between atoms: _401  and  _402
REMARK  144  A    between atoms: _402  and  _403
REMARK                            x       y       z     vdW  Elec       q    Type
REMARK                         _______ _______ _______ _____ _____    ______ ____
ROOT
ATOM      1  CG  TYR A   1       2.127  -7.242  11.839  0.00  0.00    -0.020 A 
ATOM      2  CD2 TYR A   1       1.712  -7.224  13.173  0.00  0.00    -0.001 A 
ATOM      3  CE2 TYR A   1       0.863  -6.220  13.655  0.00  0.00    +0.036 A 
ATOM      4  CZ  TYR A   1       0.419  -5.229  12.791  0.00  0.00    +0.134 A 
ATOM      5  CE1 TYR A   1       0.818  -5.226  11.455  0.00  0.00    +0.036 A 
ATOM      6  CD1 TYR A   1       1.670  -6.235  10.991  0.00  0.00    -0.001 A 
ENDROOT
BRANCH   4   7
ATOM      7  OH  TYR A   1      -0.432  -4.246  13.253  0.00  0.00    -0.506 OA
ATOM      8  HH  TYR A   1      -0.614  -4.394  14.215  0.00  0.00    +0.292 HD
ENDBRANCH   4   7
BRANCH   1   9
ATOM      9  CB  TYR A   1       3.086  -8.301  11.343  0.00  0.00    +0.051 C 
BRANCH   9  10
ATOM     10  CA  TYR A   1       4.549  -7.951  11.628  0.00  0.00    +0.137 C 
BRANCH  10  11
ATOM     11  N   TYR A   1       4.936  -6.812  10.803  0.00  0.00    -0.239 NA
ATOM     12  H   TYR A   1       5.011  -6.932   9.773  0.00  0.00    +0.142 HD
ENDBRANCH  10  11
BRANCH  10  13
ATOM     13  C   TYR A   1       5.438  -9.177  11.400  0.00  0.00    +0.224 C 
ATOM     14  O   TYR A   1       5.126 -10.277  11.855  0.00  0.00    -0.287 OA
ENDBRANCH  10  13
ENDBRANCH   9  10
ENDBRANCH   1   9
TORSDOF 5
REMARK  Name = ../refined-set-2016/4xe1/4xe1_pocket.pdb
REMARK  144 active torsions:
REMARK  status: ('A' for Active; 'I' for Inactive)
REMARK    1  A    between atoms: _1  and  _3
REMARK    2  A    between atoms: _3  and  _4
REMARK    3  A    between atoms: _3  and  _6
REMARK    4  A    between atoms: _6  and  _7
REMARK    5  A    between atoms: _17  and  _19
REMARK    6  A    between atoms: _19  and  _20
REMARK    7  A    between atoms: _19  and  _22
REMARK    8  A    between atoms: _22  and  _23
REMARK    9  A    between atoms: _28  and  _29
REMARK   10  A    between atoms: _31  and  _33
REMARK   11  A    between atoms: _33  and  _34
REMARK   12  A    between atoms: _33  and  _36
REMARK   13  A    between atoms: _36  and  _37
REMARK   14  A    between atoms: _40  and  _41
REMARK   15  A    between atoms: _46  and  _48
REMARK   16  A    between atoms: _48  and  _49
REMARK   17  A    between atoms: _48  and  _51
REMARK   18  A    between atoms: _51  and  _52
REMARK   19  A    between atoms: _57  and  _59
REMARK   20  A    between atoms: _59  and  _60
REMARK   21  A    between atoms: _63  and  _65
REMARK   22  A    between atoms: _65  and  _66
REMARK   23  A    between atoms: _65  and  _68
REMARK   24  A    between atoms: _68  and  _69
REMARK   25  A    between atoms: _74  and  _76
REMARK   26  A    between atoms: _76  and  _77
REMARK   27  A    between atoms: _76  and  _79
REMARK   28  A    between atoms: _79  and  _80
REMARK   29  A    between atoms: _83  and  _85
REMARK   30  A    between atoms: _85  and  _86
REMARK   31  A    between atoms: _85  and  _88
REMARK   32  A    between atoms: _88  and  _89
REMARK   33  A    between atoms: _89  and  _90
REMARK   34  A    between atoms: _95  and  _97
REMARK   35  A    between atoms: _97  and  _98
REMARK   36  A    between atoms: _97  and  _100
REMARK   37  A    between atoms: _100  and  _101
REMARK   38  A    between atoms: _107  and  _109
REMARK   39  A    between atoms: _120  and  _123
REMARK   40  A    between atoms: _123  and  _124
REMARK   41  A    between atoms: _132  and  _133
REMARK   42  A    between atoms: _141  and  _143
REMARK   43  A    between atoms: _143  and  _144
REMARK   44  A    between atoms: _143  and  _146
REMARK   45  A    between atoms: _146  and  _147
REMARK   46  A    between atoms: _147  and  _148
REMARK   47  A    between atoms: _151  and  _153
REMARK   48  A    between atoms: _153  and  _154
REMARK   49  A    between atoms: _153  and  _156
REMARK   50  A    between atoms: _156  and  _157
REMARK   51  A    between atoms: _162  and  _164
REMARK   52  A    between atoms: _164  and  _165
REMARK   53  A    between atoms: _164  and  _167
REMARK   54  A    between atoms: _167  and  _168
REMARK   55  A    between atoms: _168  and  _169
REMARK   56  A    between atoms: _172  and  _174
REMARK   57  A    between atoms: _174  and  _175
REMARK   58  A    between atoms: _174  and  _177
REMARK   59  A    between atoms: _177  and  _178
REMARK   60  A    between atoms: _181  and  _183
REMARK   61  A    between atoms: _183  and  _184
REMARK   62  A    between atoms: _183  and  _186
REMARK   63  A    between atoms: _186  and  _187
REMARK   64  A    between atoms: _188  and  ZN_412
REMARK   65  A    between atoms: _192  and  _194
REMARK   66  A    between atoms: _194  and  _195
REMARK   67  A    between atoms: _194  and  _197
REMARK   68  A    between atoms: _197  and  _198
REMARK   69  A    between atoms: _201  and  _203
REMARK   70  A    between atoms: _203  and  _204
REMARK   71  A    between atoms: _203  and  _206
REMARK   72  A    between atoms: _209  and  _211
REMARK   73  A    between atoms: _211  and  _212
REMARK   74  A    between atoms: _211  and  _214
REMARK   75  A    between atoms: _214  and  _215
REMARK   76  A    between atoms: _220  and  _222
REMARK   77  A    between atoms: _222  and  _223
REMARK   78  A    between atoms: _222  and  _225
REMARK   79  A    between atoms: _225  and  _226
REMARK   80  A    between atoms: _236  and  _238
REMARK   81  A    between atoms: _238  and  _239
REMARK   82  A    between atoms: _238  and  _241
REMARK   83  A    between atoms: _241  and  _242
REMARK   84  A    between atoms: _248  and  _250
REMARK   85  A    between atoms: _250  and  _251
REMARK   86  A    between atoms: _250  and  _253
REMARK   87  A    between atoms: _256  and  _258
REMARK   88  A    between atoms: _258  and  _259
REMARK   89  A    between atoms: _258  and  _261
REMARK   90  A    between atoms: _261  and  _262
REMARK   91  A    between atoms: _265  and  _267
REMARK   92  A    between atoms: _267  and  _268
REMARK   93  A    between atoms: _271  and  _273
REMARK   94  A    between atoms: _273  and  _274
REMARK   95  A    between atoms: _273  and  _276
REMARK   96  A    between atoms: _279  and  _281
REMARK   97  A    between atoms: _281  and  _282
REMARK   98  A    between atoms: _281  and  _284
REMARK   99  A    between atoms: _284  and  _285
REMARK  100  A    between atoms: _288  and  _290
REMARK  101  A    between atoms: _290  and  _291
REMARK  102  A    between atoms: _293  and  _295
REMARK  103  A    between atoms: _295  and  _296
REMARK  104  A    between atoms: _295  and  _298
REMARK  105  A    between atoms: _298  and  _299
REMARK  106  A    between atoms: _301  and  _303
REMARK  107  A    between atoms: _303  and  _304
REMARK  108  A    between atoms: _303  and  _306
REMARK  109  A    between atoms: _306  and  _307
REMARK  110  A    between atoms: _310  and  _312
REMARK  111  A    between atoms: _312  and  _313
REMARK  112  A    between atoms: _312  and  _315
REMARK  113  A    between atoms: _315  and  _316
REMARK  114  A    between atoms: _319  and  _321
REMARK  115  A    between atoms: _321  and  _322
REMARK  116  A    between atoms: _321  and  _324
REMARK  117  A    between atoms: _324  and  _325
REMARK  118  A    between atoms: _329  and  _330
REMARK  119  A    between atoms: _336  and  _337
REMARK  120  A    between atoms: _342  and  _344
REMARK  121  A    between atoms: _344  and  _345
REMARK  122  A    between atoms: _344  and  _347
REMARK  123  A    between atoms: _347  and  _348
REMARK  124  A    between atoms: _351  and  _353
REMARK  125  A    between atoms: _353  and  _354
REMARK  126  A    between atoms: _353  and  _356
REMARK  127  A    between atoms: _356  and  _357
REMARK  128  A    between atoms: _360  and  _362
REMARK  129  A    between atoms: _362  and  _363
REMARK  130  A    between atoms: _362  and  _365
REMARK  131  A    between atoms: _368  and  _370
REMARK  132  A    between atoms: _370  and  _371
REMARK  133  A    between atoms: _370  and  _373
REMARK  134  A    between atoms: _373  and  _374
REMARK  135  A    between atoms: _384  and  _386
REMARK  136  A    between atoms: _386  and  _387
REMARK  137  A    between atoms: _386  and  _389
REMARK  138  A    between atoms: _389  and  _390
REMARK  139  A    between atoms: _395  and  _397
REMARK  140  A    between atoms: _397  and  _398
REMARK  141  A    between atoms: _397  and  _400
REMARK  142  A    between atoms: _400  and  _401
REMARK  143  A    between atoms: _401  and  _402
REMARK  144  A    between atoms: _402  and  _403
REMARK                            x       y       z     vdW  Elec       q    Type
REMARK                         _______ _______ _______ _____ _____    ______ ____
ROOT
ATOM      1  C   SER A   1      -2.267  -3.057  23.028  0.00  0.00    +0.244 C 
ATOM      2  N   PRO A   2      -2.889  -4.221  22.803  0.00  0.00    -0.273 N 
ATOM      3  CA  PRO A   2      -4.035  -4.753  23.535  0.00  0.00    +0.140 C 
ATOM      4  CB  PRO A   2      -4.617  -5.761  22.552  0.00  0.00    +0.030 C 
ATOM      5  CG  PRO A   2      -3.329  -6.404  21.999  0.00  0.00    +0.024 C 
ATOM      6  CD  PRO A   2      -2.430  -5.167  21.766  0.00  0.00    +0.094 C 
ATOM      7  O   SER A   1      -1.347  -2.668  22.313  0.00  0.00    -0.273 OA
ENDROOT
BRANCH   3   8
ATOM      8  C   PRO A   2      -3.636  -5.420  24.850  0.00  0.00    +0.227 C 
ATOM      9  O   PRO A   2      -2.452  -5.483  25.188  0.00  0.00    -0.286 OA
ENDBRANCH   3   8
BRANCH   1  10
ATOM     10  CA  SER A   1      -2.792  -2.187  24.159  0.00  0.00    +0.175 C 
BRANCH  10  11
ATOM     11  N   SER A   1      -1.716  -1.292  24.597  0.00  0.00    -0.236 NA
ATOM     12  H   SER A   1      -1.228  -0.711  23.886  0.00  0.00    +0.142 HD
ENDBRANCH  10  11
BRANCH  10  13
ATOM     13  CB  SER A   1      -3.976  -1.374  23.640  0.00  0.00    +0.163 C 
BRANCH  13  14
ATOM     14  OG  SER A   1      -4.566  -0.601  24.670  0.00  0.00    -0.380 OA
ATOM     15  H   SER A   1      -4.888  -1.201  25.388  0.00  0.00    +0.211 HD
ENDBRANCH  13  14
ENDBRANCH  10  13
ENDBRANCH   1  10
TORSDOF 5
REMARK  Name = ../refined-set-2016/4xe1/4xe1_pocket.pdb
REMARK  144 active torsions:
REMARK  status: ('A' for Active; 'I' for Inactive)
REMARK    1  A    between atoms: _1  and  _3
REMARK    2  A    between atoms: _3  and  _4
REMARK    3  A    between atoms: _3  and  _6
REMARK    4  A    between atoms: _6  and  _7
REMARK    5  A    between atoms: _17  and  _19
REMARK    6  A    between atoms: _19  and  _20
REMARK    7  A    between atoms: _19  and  _22
REMARK    8  A    between atoms: _22  and  _23
REMARK    9  A    between atoms: _28  and  _29
REMARK   10  A    between atoms: _31  and  _33
REMARK   11  A    between atoms: _33  and  _34
REMARK   12  A    between atoms: _33  and  _36
REMARK   13  A    between atoms: _36  and  _37
REMARK   14  A    between atoms: _40  and  _41
REMARK   15  A    between atoms: _46  and  _48
REMARK   16  A    between atoms: _48  and  _49
REMARK   17  A    between atoms: _48  and  _51
REMARK   18  A    between atoms: _51  and  _52
REMARK   19  A    between atoms: _57  and  _59
REMARK   20  A    between atoms: _59  and  _60
REMARK   21  A    between atoms: _63  and  _65
REMARK   22  A    between atoms: _65  and  _66
REMARK   23  A    between atoms: _65  and  _68
REMARK   24  A    between atoms: _68  and  _69
REMARK   25  A    between atoms: _74  and  _76
REMARK   26  A    between atoms: _76  and  _77
REMARK   27  A    between atoms: _76  and  _79
REMARK   28  A    between atoms: _79  and  _80
REMARK   29  A    between atoms: _83  and  _85
REMARK   30  A    between atoms: _85  and  _86
REMARK   31  A    between atoms: _85  and  _88
REMARK   32  A    between atoms: _88  and  _89
REMARK   33  A    between atoms: _89  and  _90
REMARK   34  A    between atoms: _95  and  _97
REMARK   35  A    between atoms: _97  and  _98
REMARK   36  A    between atoms: _97  and  _100
REMARK   37  A    between atoms: _100  and  _101
REMARK   38  A    between atoms: _107  and  _109
REMARK   39  A    between atoms: _120  and  _123
REMARK   40  A    between atoms: _123  and  _124
REMARK   41  A    between atoms: _132  and  _133
REMARK   42  A    between atoms: _141  and  _143
REMARK   43  A    between atoms: _143  and  _144
REMARK   44  A    between atoms: _143  and  _146
REMARK   45  A    between atoms: _146  and  _147
REMARK   46  A    between atoms: _147  and  _148
REMARK   47  A    between atoms: _151  and  _153
REMARK   48  A    between atoms: _153  and  _154
REMARK   49  A    between atoms: _153  and  _156
REMARK   50  A    between atoms: _156  and  _157
REMARK   51  A    between atoms: _162  and  _164
REMARK   52  A    between atoms: _164  and  _165
REMARK   53  A    between atoms: _164  and  _167
REMARK   54  A    between atoms: _167  and  _168
REMARK   55  A    between atoms: _168  and  _169
REMARK   56  A    between atoms: _172  and  _174
REMARK   57  A    between atoms: _174  and  _175
REMARK   58  A    between atoms: _174  and  _177
REMARK   59  A    between atoms: _177  and  _178
REMARK   60  A    between atoms: _181  and  _183
REMARK   61  A    between atoms: _183  and  _184
REMARK   62  A    between atoms: _183  and  _186
REMARK   63  A    between atoms: _186  and  _187
REMARK   64  A    between atoms: _188  and  ZN_412
REMARK   65  A    between atoms: _192  and  _194
REMARK   66  A    between atoms: _194  and  _195
REMARK   67  A    between atoms: _194  and  _197
REMARK   68  A    between atoms: _197  and  _198
REMARK   69  A    between atoms: _201  and  _203
REMARK   70  A    between atoms: _203  and  _204
REMARK   71  A    between atoms: _203  and  _206
REMARK   72  A    between atoms: _209  and  _211
REMARK   73  A    between atoms: _211  and  _212
REMARK   74  A    between atoms: _211  and  _214
REMARK   75  A    between atoms: _214  and  _215
REMARK   76  A    between atoms: _220  and  _222
REMARK   77  A    between atoms: _222  and  _223
REMARK   78  A    between atoms: _222  and  _225
REMARK   79  A    between atoms: _225  and  _226
REMARK   80  A    between atoms: _236  and  _238
REMARK   81  A    between atoms: _238  and  _239
REMARK   82  A    between atoms: _238  and  _241
REMARK   83  A    between atoms: _241  and  _242
REMARK   84  A    between atoms: _248  and  _250
REMARK   85  A    between atoms: _250  and  _251
REMARK   86  A    between atoms: _250  and  _253
REMARK   87  A    between atoms: _256  and  _258
REMARK   88  A    between atoms: _258  and  _259
REMARK   89  A    between atoms: _258  and  _261
REMARK   90  A    between atoms: _261  and  _262
REMARK   91  A    between atoms: _265  and  _267
REMARK   92  A    between atoms: _267  and  _268
REMARK   93  A    between atoms: _271  and  _273
REMARK   94  A    between atoms: _273  and  _274
REMARK   95  A    between atoms: _273  and  _276
REMARK   96  A    between atoms: _279  and  _281
REMARK   97  A    between atoms: _281  and  _282
REMARK   98  A    between atoms: _281  and  _284
REMARK   99  A    between atoms: _284  and  _285
REMARK  100  A    between atoms: _288  and  _290
REMARK  101  A    between atoms: _290  and  _291
REMARK  102  A    between atoms: _293  and  _295
REMARK  103  A    between atoms: _295  and  _296
REMARK  104  A    between atoms: _295  and  _298
REMARK  105  A    between atoms: _298  and  _299
REMARK  106  A    between atoms: _301  and  _303
REMARK  107  A    between atoms: _303  and  _304
REMARK  108  A    between atoms: _303  and  _306
REMARK  109  A    between atoms: _306  and  _307
REMARK  110  A    between atoms: _310  and  _312
REMARK  111  A    between atoms: _312  and  _313
REMARK  112  A    between atoms: _312  and  _315
REMARK  113  A    between atoms: _315  and  _316
REMARK  114  A    between atoms: _319  and  _321
REMARK  115  A    between atoms: _321  and  _322
REMARK  116  A    between atoms: _321  and  _324
REMARK  117  A    between atoms: _324  and  _325
REMARK  118  A    between atoms: _329  and  _330
REMARK  119  A    between atoms: _336  and  _337
REMARK  120  A    between atoms: _342  and  _344
REMARK  121  A    between atoms: _344  and  _345
REMARK  122  A    between atoms: _344  and  _347
REMARK  123  A    between atoms: _347  and  _348
REMARK  124  A    between atoms: _351  and  _353
REMARK  125  A    between atoms: _353  and  _354
REMARK  126  A    between atoms: _353  and  _356
REMARK  127  A    between atoms: _356  and  _357
REMARK  128  A    between atoms: _360  and  _362
REMARK  129  A    between atoms: _362  and  _363
REMARK  130  A    between atoms: _362  and  _365
REMARK  131  A    between atoms: _368  and  _370
REMARK  132  A    between atoms: _370  and  _371
REMARK  133  A    between atoms: _370  and  _373
REMARK  134  A    between atoms: _373  and  _374
REMARK  135  A    between atoms: _384  and  _386
REMARK  136  A    between atoms: _386  and  _387
REMARK  137  A    between atoms: _386  and  _389
REMARK  138  A    between atoms: _389  and  _390
REMARK  139  A    between atoms: _395  and  _397
REMARK  140  A    between atoms: _397  and  _398
REMARK  141  A    between atoms: _397  and  _400
REMARK  142  A    between atoms: _400  and  _401
REMARK  143  A    between atoms: _401  and  _402
REMARK  144  A    between atoms: _402  and  _403
REMARK                            x       y       z     vdW  Elec       q    Type
REMARK                         _______ _______ _______ _____ _____    ______ ____
ROOT
ATOM      1  CB  ASN A   1      -2.528   1.852   5.308  0.00  0.00    +0.110 C 
ENDROOT
BRANCH   1   2
ATOM      2  CG  ASN A   1      -2.930   0.979   6.487  0.00  0.00    +0.221 C 
ATOM      3  ND2 ASN A   1      -3.727   1.534   7.396  0.00  0.00    -0.329 N 
ATOM      4 HD21 ASN A   1      -4.025   0.988   8.229  0.00  0.00    +0.145 HD
ATOM      5 HD22 ASN A   1      -4.052   2.514   7.274  0.00  0.00    +0.145 HD
ATOM      6  OD1 ASN A   1      -2.516  -0.178   6.583  0.00  0.00    -0.275 OA
ENDBRANCH   1   2
BRANCH   1   7
ATOM      7  CA  ASN A   1      -2.169   1.022   4.059  0.00  0.00    +0.142 C 
BRANCH   7   8
ATOM      8  N   ASN A   1      -3.319   0.220   3.631  0.00  0.00    -0.239 NA
ATOM      9  H   ASN A   1      -3.912  -0.256   4.341  0.00  0.00    +0.142 HD
ENDBRANCH   7   8
BRANCH   7  10
ATOM     10  C   ASN A   1      -0.909   0.196   4.329  0.00  0.00    +0.225 C 
ATOM     11  O   ASN A   1       0.055   0.693   4.928  0.00  0.00    -0.287 OA
ENDBRANCH   7  10
ENDBRANCH   1   7
TORSDOF 4
REMARK  Name = ../refined-set-2016/4xe1/4xe1_pocket.pdb
REMARK  144 active torsions:
REMARK  status: ('A' for Active; 'I' for Inactive)
REMARK    1  A    between atoms: _1  and  _3
REMARK    2  A    between atoms: _3  and  _4
REMARK    3  A    between atoms: _3  and  _6
REMARK    4  A    between atoms: _6  and  _7
REMARK    5  A    between atoms: _17  and  _19
REMARK    6  A    between atoms: _19  and  _20
REMARK    7  A    between atoms: _19  and  _22
REMARK    8  A    between atoms: _22  and  _23
REMARK    9  A    between atoms: _28  and  _29
REMARK   10  A    between atoms: _31  and  _33
REMARK   11  A    between atoms: _33  and  _34
REMARK   12  A    between atoms: _33  and  _36
REMARK   13  A    between atoms: _36  and  _37
REMARK   14  A    between atoms: _40  and  _41
REMARK   15  A    between atoms: _46  and  _48
REMARK   16  A    between atoms: _48  and  _49
REMARK   17  A    between atoms: _48  and  _51
REMARK   18  A    between atoms: _51  and  _52
REMARK   19  A    between atoms: _57  and  _59
REMARK   20  A    between atoms: _59  and  _60
REMARK   21  A    between atoms: _63  and  _65
REMARK   22  A    between atoms: _65  and  _66
REMARK   23  A    between atoms: _65  and  _68
REMARK   24  A    between atoms: _68  and  _69
REMARK   25  A    between atoms: _74  and  _76
REMARK   26  A    between atoms: _76  and  _77
REMARK   27  A    between atoms: _76  and  _79
REMARK   28  A    between atoms: _79  and  _80
REMARK   29  A    between atoms: _83  and  _85
REMARK   30  A    between atoms: _85  and  _86
REMARK   31  A    between atoms: _85  and  _88
REMARK   32  A    between atoms: _88  and  _89
REMARK   33  A    between atoms: _89  and  _90
REMARK   34  A    between atoms: _95  and  _97
REMARK   35  A    between atoms: _97  and  _98
REMARK   36  A    between atoms: _97  and  _100
REMARK   37  A    between atoms: _100  and  _101
REMARK   38  A    between atoms: _107  and  _109
REMARK   39  A    between atoms: _120  and  _123
REMARK   40  A    between atoms: _123  and  _124
REMARK   41  A    between atoms: _132  and  _133
REMARK   42  A    between atoms: _141  and  _143
REMARK   43  A    between atoms: _143  and  _144
REMARK   44  A    between atoms: _143  and  _146
REMARK   45  A    between atoms: _146  and  _147
REMARK   46  A    between atoms: _147  and  _148
REMARK   47  A    between atoms: _151  and  _153
REMARK   48  A    between atoms: _153  and  _154
REMARK   49  A    between atoms: _153  and  _156
REMARK   50  A    between atoms: _156  and  _157
REMARK   51  A    between atoms: _162  and  _164
REMARK   52  A    between atoms: _164  and  _165
REMARK   53  A    between atoms: _164  and  _167
REMARK   54  A    between atoms: _167  and  _168
REMARK   55  A    between atoms: _168  and  _169
REMARK   56  A    between atoms: _172  and  _174
REMARK   57  A    between atoms: _174  and  _175
REMARK   58  A    between atoms: _174  and  _177
REMARK   59  A    between atoms: _177  and  _178
REMARK   60  A    between atoms: _181  and  _183
REMARK   61  A    between atoms: _183  and  _184
REMARK   62  A    between atoms: _183  and  _186
REMARK   63  A    between atoms: _186  and  _187
REMARK   64  A    between atoms: _188  and  ZN_412
REMARK   65  A    between atoms: _192  and  _194
REMARK   66  A    between atoms: _194  and  _195
REMARK   67  A    between atoms: _194  and  _197
REMARK   68  A    between atoms: _197  and  _198
REMARK   69  A    between atoms: _201  and  _203
REMARK   70  A    between atoms: _203  and  _204
REMARK   71  A    between atoms: _203  and  _206
REMARK   72  A    between atoms: _209  and  _211
REMARK   73  A    between atoms: _211  and  _212
REMARK   74  A    between atoms: _211  and  _214
REMARK   75  A    between atoms: _214  and  _215
REMARK   76  A    between atoms: _220  and  _222
REMARK   77  A    between atoms: _222  and  _223
REMARK   78  A    between atoms: _222  and  _225
REMARK   79  A    between atoms: _225  and  _226
REMARK   80  A    between atoms: _236  and  _238
REMARK   81  A    between atoms: _238  and  _239
REMARK   82  A    between atoms: _238  and  _241
REMARK   83  A    between atoms: _241  and  _242
REMARK   84  A    between atoms: _248  and  _250
REMARK   85  A    between atoms: _250  and  _251
REMARK   86  A    between atoms: _250  and  _253
REMARK   87  A    between atoms: _256  and  _258
REMARK   88  A    between atoms: _258  and  _259
REMARK   89  A    between atoms: _258  and  _261
REMARK   90  A    between atoms: _261  and  _262
REMARK   91  A    between atoms: _265  and  _267
REMARK   92  A    between atoms: _267  and  _268
REMARK   93  A    between atoms: _271  and  _273
REMARK   94  A    between atoms: _273  and  _274
REMARK   95  A    between atoms: _273  and  _276
REMARK   96  A    between atoms: _279  and  _281
REMARK   97  A    between atoms: _281  and  _282
REMARK   98  A    between atoms: _281  and  _284
REMARK   99  A    between atoms: _284  and  _285
REMARK  100  A    between atoms: _288  and  _290
REMARK  101  A    between atoms: _290  and  _291
REMARK  102  A    between atoms: _293  and  _295
REMARK  103  A    between atoms: _295  and  _296
REMARK  104  A    between atoms: _295  and  _298
REMARK  105  A    between atoms: _298  and  _299
REMARK  106  A    between atoms: _301  and  _303
REMARK  107  A    between atoms: _303  and  _304
REMARK  108  A    between atoms: _303  and  _306
REMARK  109  A    between atoms: _306  and  _307
REMARK  110  A    between atoms: _310  and  _312
REMARK  111  A    between atoms: _312  and  _313
REMARK  112  A    between atoms: _312  and  _315
REMARK  113  A    between atoms: _315  and  _316
REMARK  114  A    between atoms: _319  and  _321
REMARK  115  A    between atoms: _321  and  _322
REMARK  116  A    between atoms: _321  and  _324
REMARK  117  A    between atoms: _324  and  _325
REMARK  118  A    between atoms: _329  and  _330
REMARK  119  A    between atoms: _336  and  _337
REMARK  120  A    between atoms: _342  and  _344
REMARK  121  A    between atoms: _344  and  _345
REMARK  122  A    between atoms: _344  and  _347
REMARK  123  A    between atoms: _347  and  _348
REMARK  124  A    between atoms: _351  and  _353
REMARK  125  A    between atoms: _353  and  _354
REMARK  126  A    between atoms: _353  and  _356
REMARK  127  A    between atoms: _356  and  _357
REMARK  128  A    between atoms: _360  and  _362
REMARK  129  A    between atoms: _362  and  _363
REMARK  130  A    between atoms: _362  and  _365
REMARK  131  A    between atoms: _368  and  _370
REMARK  132  A    between atoms: _370  and  _371
REMARK  133  A    between atoms: _370  and  _373
REMARK  134  A    between atoms: _373  and  _374
REMARK  135  A    between atoms: _384  and  _386
REMARK  136  A    between atoms: _386  and  _387
REMARK  137  A    between atoms: _386  and  _389
REMARK  138  A    between atoms: _389  and  _390
REMARK  139  A    between atoms: _395  and  _397
REMARK  140  A    between atoms: _397  and  _398
REMARK  141  A    between atoms: _397  and  _400
REMARK  142  A    between atoms: _400  and  _401
REMARK  143  A    between atoms: _401  and  _402
REMARK  144  A    between atoms: _402  and  _403
REMARK                            x       y       z     vdW  Elec       q    Type
REMARK                         _______ _______ _______ _____ _____    ______ ____
ROOT
ATOM      1  CA  ALA A   1      -4.527  -3.422   7.277  0.00  0.00    +0.133 C 
ATOM      2  CB  ALA A   1      -5.137  -3.158   8.671  0.00  0.00    +0.027 C 
ENDROOT
BRANCH   1   3
ATOM      3  N   ALA A   1      -3.141  -2.953   7.240  0.00  0.00    -0.239 NA
ATOM      4  H   ALA A   1      -2.935  -2.081   6.712  0.00  0.00    +0.142 HD
ENDBRANCH   1   3
BRANCH   1   5
ATOM      5  C   ALA A   1      -5.259  -2.607   6.208  0.00  0.00    +0.224 C 
ATOM      6  O   ALA A   1      -4.611  -1.969   5.374  0.00  0.00    -0.287 OA
ENDBRANCH   1   5
TORSDOF 2
REMARK  Name = ../refined-set-2016/4xe1/4xe1_pocket.pdb
REMARK  144 active torsions:
REMARK  status: ('A' for Active; 'I' for Inactive)
REMARK    1  A    between atoms: _1  and  _3
REMARK    2  A    between atoms: _3  and  _4
REMARK    3  A    between atoms: _3  and  _6
REMARK    4  A    between atoms: _6  and  _7
REMARK    5  A    between atoms: _17  and  _19
REMARK    6  A    between atoms: _19  and  _20
REMARK    7  A    between atoms: _19  and  _22
REMARK    8  A    between atoms: _22  and  _23
REMARK    9  A    between atoms: _28  and  _29
REMARK   10  A    between atoms: _31  and  _33
REMARK   11  A    between atoms: _33  and  _34
REMARK   12  A    between atoms: _33  and  _36
REMARK   13  A    between atoms: _36  and  _37
REMARK   14  A    between atoms: _40  and  _41
REMARK   15  A    between atoms: _46  and  _48
REMARK   16  A    between atoms: _48  and  _49
REMARK   17  A    between atoms: _48  and  _51
REMARK   18  A    between atoms: _51  and  _52
REMARK   19  A    between atoms: _57  and  _59
REMARK   20  A    between atoms: _59  and  _60
REMARK   21  A    between atoms: _63  and  _65
REMARK   22  A    between atoms: _65  and  _66
REMARK   23  A    between atoms: _65  and  _68
REMARK   24  A    between atoms: _68  and  _69
REMARK   25  A    between atoms: _74  and  _76
REMARK   26  A    between atoms: _76  and  _77
REMARK   27  A    between atoms: _76  and  _79
REMARK   28  A    between atoms: _79  and  _80
REMARK   29  A    between atoms: _83  and  _85
REMARK   30  A    between atoms: _85  and  _86
REMARK   31  A    between atoms: _85  and  _88
REMARK   32  A    between atoms: _88  and  _89
REMARK   33  A    between atoms: _89  and  _90
REMARK   34  A    between atoms: _95  and  _97
REMARK   35  A    between atoms: _97  and  _98
REMARK   36  A    between atoms: _97  and  _100
REMARK   37  A    between atoms: _100  and  _101
REMARK   38  A    between atoms: _107  and  _109
REMARK   39  A    between atoms: _120  and  _123
REMARK   40  A    between atoms: _123  and  _124
REMARK   41  A    between atoms: _132  and  _133
REMARK   42  A    between atoms: _141  and  _143
REMARK   43  A    between atoms: _143  and  _144
REMARK   44  A    between atoms: _143  and  _146
REMARK   45  A    between atoms: _146  and  _147
REMARK   46  A    between atoms: _147  and  _148
REMARK   47  A    between atoms: _151  and  _153
REMARK   48  A    between atoms: _153  and  _154
REMARK   49  A    between atoms: _153  and  _156
REMARK   50  A    between atoms: _156  and  _157
REMARK   51  A    between atoms: _162  and  _164
REMARK   52  A    between atoms: _164  and  _165
REMARK   53  A    between atoms: _164  and  _167
REMARK   54  A    between atoms: _167  and  _168
REMARK   55  A    between atoms: _168  and  _169
REMARK   56  A    between atoms: _172  and  _174
REMARK   57  A    between atoms: _174  and  _175
REMARK   58  A    between atoms: _174  and  _177
REMARK   59  A    between atoms: _177  and  _178
REMARK   60  A    between atoms: _181  and  _183
REMARK   61  A    between atoms: _183  and  _184
REMARK   62  A    between atoms: _183  and  _186
REMARK   63  A    between atoms: _186  and  _187
REMARK   64  A    between atoms: _188  and  ZN_412
REMARK   65  A    between atoms: _192  and  _194
REMARK   66  A    between atoms: _194  and  _195
REMARK   67  A    between atoms: _194  and  _197
REMARK   68  A    between atoms: _197  and  _198
REMARK   69  A    between atoms: _201  and  _203
REMARK   70  A    between atoms: _203  and  _204
REMARK   71  A    between atoms: _203  and  _206
REMARK   72  A    between atoms: _209  and  _211
REMARK   73  A    between atoms: _211  and  _212
REMARK   74  A    between atoms: _211  and  _214
REMARK   75  A    between atoms: _214  and  _215
REMARK   76  A    between atoms: _220  and  _222
REMARK   77  A    between atoms: _222  and  _223
REMARK   78  A    between atoms: _222  and  _225
REMARK   79  A    between atoms: _225  and  _226
REMARK   80  A    between atoms: _236  and  _238
REMARK   81  A    between atoms: _238  and  _239
REMARK   82  A    between atoms: _238  and  _241
REMARK   83  A    between atoms: _241  and  _242
REMARK   84  A    between atoms: _248  and  _250
REMARK   85  A    between atoms: _250  and  _251
REMARK   86  A    between atoms: _250  and  _253
REMARK   87  A    between atoms: _256  and  _258
REMARK   88  A    between atoms: _258  and  _259
REMARK   89  A    between atoms: _258  and  _261
REMARK   90  A    between atoms: _261  and  _262
REMARK   91  A    between atoms: _265  and  _267
REMARK   92  A    between atoms: _267  and  _268
REMARK   93  A    between atoms: _271  and  _273
REMARK   94  A    between atoms: _273  and  _274
REMARK   95  A    between atoms: _273  and  _276
REMARK   96  A    between atoms: _279  and  _281
REMARK   97  A    between atoms: _281  and  _282
REMARK   98  A    between atoms: _281  and  _284
REMARK   99  A    between atoms: _284  and  _285
REMARK  100  A    between atoms: _288  and  _290
REMARK  101  A    between atoms: _290  and  _291
REMARK  102  A    between atoms: _293  and  _295
REMARK  103  A    between atoms: _295  and  _296
REMARK  104  A    between atoms: _295  and  _298
REMARK  105  A    between atoms: _298  and  _299
REMARK  106  A    between atoms: _301  and  _303
REMARK  107  A    between atoms: _303  and  _304
REMARK  108  A    between atoms: _303  and  _306
REMARK  109  A    between atoms: _306  and  _307
REMARK  110  A    between atoms: _310  and  _312
REMARK  111  A    between atoms: _312  and  _313
REMARK  112  A    between atoms: _312  and  _315
REMARK  113  A    between atoms: _315  and  _316
REMARK  114  A    between atoms: _319  and  _321
REMARK  115  A    between atoms: _321  and  _322
REMARK  116  A    between atoms: _321  and  _324
REMARK  117  A    between atoms: _324  and  _325
REMARK  118  A    between atoms: _329  and  _330
REMARK  119  A    between atoms: _336  and  _337
REMARK  120  A    between atoms: _342  and  _344
REMARK  121  A    between atoms: _344  and  _345
REMARK  122  A    between atoms: _344  and  _347
REMARK  123  A    between atoms: _347  and  _348
REMARK  124  A    between atoms: _351  and  _353
REMARK  125  A    between atoms: _353  and  _354
REMARK  126  A    between atoms: _353  and  _356
REMARK  127  A    between atoms: _356  and  _357
REMARK  128  A    between atoms: _360  and  _362
REMARK  129  A    between atoms: _362  and  _363
REMARK  130  A    between atoms: _362  and  _365
REMARK  131  A    between atoms: _368  and  _370
REMARK  132  A    between atoms: _370  and  _371
REMARK  133  A    between atoms: _370  and  _373
REMARK  134  A    between atoms: _373  and  _374
REMARK  135  A    between atoms: _384  and  _386
REMARK  136  A    between atoms: _386  and  _387
REMARK  137  A    between atoms: _386  and  _389
REMARK  138  A    between atoms: _389  and  _390
REMARK  139  A    between atoms: _395  and  _397
REMARK  140  A    between atoms: _397  and  _398
REMARK  141  A    between atoms: _397  and  _400
REMARK  142  A    between atoms: _400  and  _401
REMARK  143  A    between atoms: _401  and  _402
REMARK  144  A    between atoms: _402  and  _403
REMARK                            x       y       z     vdW  Elec       q    Type
REMARK                         _______ _______ _______ _____ _____    ______ ____
ROOT
ATOM      1  CB  ASN A   1      -8.445   2.491   6.873  0.00  0.00    +0.110 C 
ENDROOT
BRANCH   1   2
ATOM      2  CG  ASN A   1      -7.425   2.238   7.950  0.00  0.00    +0.221 C 
ATOM      3  OD1 ASN A   1      -7.362   1.156   8.525  0.00  0.00    -0.275 OA
ATOM      4  ND2 ASN A   1      -6.612   3.254   8.234  0.00  0.00    -0.329 N 
ATOM      5 HD21 ASN A   1      -5.885   3.148   8.971  0.00  0.00    +0.145 HD
ATOM      6 HD22 ASN A   1      -6.704   4.153   7.719  0.00  0.00    +0.145 HD
ENDBRANCH   1   2
BRANCH   1   7
ATOM      7  CA  ASN A   1      -9.219   1.228   6.456  0.00  0.00    +0.142 C 
BRANCH   7   8
ATOM      8  N   ASN A   1      -8.357   0.302   5.751  0.00  0.00    -0.239 NA
ATOM      9  H   ASN A   1      -7.759   0.654   4.977  0.00  0.00    +0.142 HD
ENDBRANCH   7   8
BRANCH   7  10
ATOM     10  C   ASN A   1     -10.390   1.711   5.621  0.00  0.00    +0.225 C 
ATOM     11  O   ASN A   1     -10.220   2.068   4.455  0.00  0.00    -0.287 OA
ENDBRANCH   7  10
ENDBRANCH   1   7
TORSDOF 4
REMARK  Name = ../refined-set-2016/4xe1/4xe1_pocket.pdb
REMARK  144 active torsions:
REMARK  status: ('A' for Active; 'I' for Inactive)
REMARK    1  A    between atoms: _1  and  _3
REMARK    2  A    between atoms: _3  and  _4
REMARK    3  A    between atoms: _3  and  _6
REMARK    4  A    between atoms: _6  and  _7
REMARK    5  A    between atoms: _17  and  _19
REMARK    6  A    between atoms: _19  and  _20
REMARK    7  A    between atoms: _19  and  _22
REMARK    8  A    between atoms: _22  and  _23
REMARK    9  A    between atoms: _28  and  _29
REMARK   10  A    between atoms: _31  and  _33
REMARK   11  A    between atoms: _33  and  _34
REMARK   12  A    between atoms: _33  and  _36
REMARK   13  A    between atoms: _36  and  _37
REMARK   14  A    between atoms: _40  and  _41
REMARK   15  A    between atoms: _46  and  _48
REMARK   16  A    between atoms: _48  and  _49
REMARK   17  A    between atoms: _48  and  _51
REMARK   18  A    between atoms: _51  and  _52
REMARK   19  A    between atoms: _57  and  _59
REMARK   20  A    between atoms: _59  and  _60
REMARK   21  A    between atoms: _63  and  _65
REMARK   22  A    between atoms: _65  and  _66
REMARK   23  A    between atoms: _65  and  _68
REMARK   24  A    between atoms: _68  and  _69
REMARK   25  A    between atoms: _74  and  _76
REMARK   26  A    between atoms: _76  and  _77
REMARK   27  A    between atoms: _76  and  _79
REMARK   28  A    between atoms: _79  and  _80
REMARK   29  A    between atoms: _83  and  _85
REMARK   30  A    between atoms: _85  and  _86
REMARK   31  A    between atoms: _85  and  _88
REMARK   32  A    between atoms: _88  and  _89
REMARK   33  A    between atoms: _89  and  _90
REMARK   34  A    between atoms: _95  and  _97
REMARK   35  A    between atoms: _97  and  _98
REMARK   36  A    between atoms: _97  and  _100
REMARK   37  A    between atoms: _100  and  _101
REMARK   38  A    between atoms: _107  and  _109
REMARK   39  A    between atoms: _120  and  _123
REMARK   40  A    between atoms: _123  and  _124
REMARK   41  A    between atoms: _132  and  _133
REMARK   42  A    between atoms: _141  and  _143
REMARK   43  A    between atoms: _143  and  _144
REMARK   44  A    between atoms: _143  and  _146
REMARK   45  A    between atoms: _146  and  _147
REMARK   46  A    between atoms: _147  and  _148
REMARK   47  A    between atoms: _151  and  _153
REMARK   48  A    between atoms: _153  and  _154
REMARK   49  A    between atoms: _153  and  _156
REMARK   50  A    between atoms: _156  and  _157
REMARK   51  A    between atoms: _162  and  _164
REMARK   52  A    between atoms: _164  and  _165
REMARK   53  A    between atoms: _164  and  _167
REMARK   54  A    between atoms: _167  and  _168
REMARK   55  A    between atoms: _168  and  _169
REMARK   56  A    between atoms: _172  and  _174
REMARK   57  A    between atoms: _174  and  _175
REMARK   58  A    between atoms: _174  and  _177
REMARK   59  A    between atoms: _177  and  _178
REMARK   60  A    between atoms: _181  and  _183
REMARK   61  A    between atoms: _183  and  _184
REMARK   62  A    between atoms: _183  and  _186
REMARK   63  A    between atoms: _186  and  _187
REMARK   64  A    between atoms: _188  and  ZN_412
REMARK   65  A    between atoms: _192  and  _194
REMARK   66  A    between atoms: _194  and  _195
REMARK   67  A    between atoms: _194  and  _197
REMARK   68  A    between atoms: _197  and  _198
REMARK   69  A    between atoms: _201  and  _203
REMARK   70  A    between atoms: _203  and  _204
REMARK   71  A    between atoms: _203  and  _206
REMARK   72  A    between atoms: _209  and  _211
REMARK   73  A    between atoms: _211  and  _212
REMARK   74  A    between atoms: _211  and  _214
REMARK   75  A    between atoms: _214  and  _215
REMARK   76  A    between atoms: _220  and  _222
REMARK   77  A    between atoms: _222  and  _223
REMARK   78  A    between atoms: _222  and  _225
REMARK   79  A    between atoms: _225  and  _226
REMARK   80  A    between atoms: _236  and  _238
REMARK   81  A    between atoms: _238  and  _239
REMARK   82  A    between atoms: _238  and  _241
REMARK   83  A    between atoms: _241  and  _242
REMARK   84  A    between atoms: _248  and  _250
REMARK   85  A    between atoms: _250  and  _251
REMARK   86  A    between atoms: _250  and  _253
REMARK   87  A    between atoms: _256  and  _258
REMARK   88  A    between atoms: _258  and  _259
REMARK   89  A    between atoms: _258  and  _261
REMARK   90  A    between atoms: _261  and  _262
REMARK   91  A    between atoms: _265  and  _267
REMARK   92  A    between atoms: _267  and  _268
REMARK   93  A    between atoms: _271  and  _273
REMARK   94  A    between atoms: _273  and  _274
REMARK   95  A    between atoms: _273  and  _276
REMARK   96  A    between atoms: _279  and  _281
REMARK   97  A    between atoms: _281  and  _282
REMARK   98  A    between atoms: _281  and  _284
REMARK   99  A    between atoms: _284  and  _285
REMARK  100  A    between atoms: _288  and  _290
REMARK  101  A    between atoms: _290  and  _291
REMARK  102  A    between atoms: _293  and  _295
REMARK  103  A    between atoms: _295  and  _296
REMARK  104  A    between atoms: _295  and  _298
REMARK  105  A    between atoms: _298  and  _299
REMARK  106  A    between atoms: _301  and  _303
REMARK  107  A    between atoms: _303  and  _304
REMARK  108  A    between atoms: _303  and  _306
REMARK  109  A    between atoms: _306  and  _307
REMARK  110  A    between atoms: _310  and  _312
REMARK  111  A    between atoms: _312  and  _313
REMARK  112  A    between atoms: _312  and  _315
REMARK  113  A    between atoms: _315  and  _316
REMARK  114  A    between atoms: _319  and  _321
REMARK  115  A    between atoms: _321  and  _322
REMARK  116  A    between atoms: _321  and  _324
REMARK  117  A    between atoms: _324  and  _325
REMARK  118  A    between atoms: _329  and  _330
REMARK  119  A    between atoms: _336  and  _337
REMARK  120  A    between atoms: _342  and  _344
REMARK  121  A    between atoms: _344  and  _345
REMARK  122  A    between atoms: _344  and  _347
REMARK  123  A    between atoms: _347  and  _348
REMARK  124  A    between atoms: _351  and  _353
REMARK  125  A    between atoms: _353  and  _354
REMARK  126  A    between atoms: _353  and  _356
REMARK  127  A    between atoms: _356  and  _357
REMARK  128  A    between atoms: _360  and  _362
REMARK  129  A    between atoms: _362  and  _363
REMARK  130  A    between atoms: _362  and  _365
REMARK  131  A    between atoms: _368  and  _370
REMARK  132  A    between atoms: _370  and  _371
REMARK  133  A    between atoms: _370  and  _373
REMARK  134  A    between atoms: _373  and  _374
REMARK  135  A    between atoms: _384  and  _386
REMARK  136  A    between atoms: _386  and  _387
REMARK  137  A    between atoms: _386  and  _389
REMARK  138  A    between atoms: _389  and  _390
REMARK  139  A    between atoms: _395  and  _397
REMARK  140  A    between atoms: _397  and  _398
REMARK  141  A    between atoms: _397  and  _400
REMARK  142  A    between atoms: _400  and  _401
REMARK  143  A    between atoms: _401  and  _402
REMARK  144  A    between atoms: _402  and  _403
REMARK                            x       y       z     vdW  Elec       q    Type
REMARK                         _______ _______ _______ _____ _____    ______ ____
ROOT
ATOM      1  N   UNK A   6      -8.104  -2.382  16.410  0.00  0.00    +0.000 N 
ATOM      2  C   UNK A   6      -7.840  -3.283  17.334  0.00  0.00    +0.000 A 
ATOM      3  N   UNK A   6      -8.953  -3.686  17.968  0.00  0.00    +0.000 NA
ATOM      4  C   UNK A   6      -9.996  -2.995  17.413  0.00  0.00    +0.000 A 
ATOM      5  C   UNK A   6      -9.465  -2.197  16.454  0.00  0.00    +0.000 A 
ENDROOT
BRANCH   1  19
ATOM      6  C   UNK A   4     -10.349  -1.601  10.132  0.00  0.00    +0.000 C 
ATOM      7  C   UNK A   4     -10.375  -2.857  10.970  0.00  0.00    +0.000 C 
ATOM      8  O   UNK A   4     -11.041  -2.896  12.010  0.00  0.00    +0.000 OA
ATOM      9  N   VAL A   5      -9.667  -3.880  10.512  0.00  0.00    +0.000 N 
ATOM     10  CA  VAL A   5      -9.614  -5.144  11.234  0.00  0.00    +0.000 C 
ATOM     11  C   VAL A   5      -8.184  -5.638  11.401  0.00  0.00    +0.000 C 
ATOM     12  N   UNK A   6      -8.037  -6.633  12.273  0.00  0.00    +0.000 N 
ATOM     13  H   UNK A   6      -8.868  -6.935  12.821  0.00  0.00    +0.000 HD
ATOM     14  C   UNK A   6      -6.773  -7.322  12.501  0.00  0.00    +0.000 C 
ATOM     15  C   UNK A   6      -6.234  -7.043  13.903  0.00  0.00    +0.000 C 
ATOM     16  C   UNK A   6      -5.868  -5.613  14.121  0.00  0.00    +0.000 A 
ATOM     17  C   UNK A   6      -6.626  -4.570  14.539  0.00  0.00    +0.000 A 
ATOM     18  N   UNK A   6      -5.862  -3.415  14.550  0.00  0.00    +0.000 N 
ATOM     19 ZN   UNK A   6      -6.682  -1.685  15.125  0.00  0.00    +0.000 Zn
ATOM     20  N   UNK A   4      -7.356  -0.863  13.415  0.00  0.00    +0.000 N 
ATOM     21  C   UNK A   4      -7.910   0.324  13.266  0.00  0.00    +0.000 A 
ATOM     22  N   UNK A   4      -8.514   0.426  12.065  0.00  0.00    +0.000 NA
ATOM     23  C   UNK A   4      -8.338  -0.769  11.405  0.00  0.00    +0.000 A 
ATOM     24  C   UNK A   4      -7.622  -1.556  12.248  0.00  0.00    +0.000 A 
ATOM     25  C   UNK A   6      -4.664  -3.773  14.135  0.00  0.00    +0.000 A 
ATOM     26  N   UNK A   6      -4.621  -5.089  13.860  0.00  0.00    +0.000 NA
ATOM     27  O   VAL A   5      -7.252  -5.138  10.767  0.00  0.00    +0.000 OA
ATOM     28  H   VAL A   5      -9.140  -3.778   9.621  0.00  0.00    +0.000 HD
ATOM     29  C   UNK A   4      -8.918  -1.076  10.063  0.00  0.00    +0.000 C 
BRANCH   6  31
ATOM     30  C   UNK A   3     -11.738   0.380  10.147  0.00  0.00    +0.000 C 
ATOM     31  N   UNK A   4     -11.211  -0.649  10.797  0.00  0.00    +0.000 N 
ATOM     32  H   UNK A   4     -11.422  -0.774  11.808  0.00  0.00    +0.000 HD
ATOM     33  O   UNK A   3     -11.508   0.598   8.953  0.00  0.00    +0.000 OA
BRANCH  30  34
ATOM     34  C   UNK A   3     -12.621   1.312  10.968  0.00  0.00    +0.000 C 
BRANCH  34  37
ATOM     35  C   LEU A   2     -12.505   3.735  11.043  0.00  0.00    +0.000 C 
ATOM     36  O   LEU A   2     -12.613   3.755  12.267  0.00  0.00    +0.000 OA
ATOM     37  N   UNK A   3     -12.609   2.624  10.317  0.00  0.00    +0.000 N 
ATOM     38  H   UNK A   3     -12.682   2.688   9.282  0.00  0.00    +0.000 HD
BRANCH  35  39
ATOM     39  CA  LEU A   2     -12.330   5.029  10.273  0.00  0.00    +0.000 C 
BRANCH  39  41
ATOM     40  C   GLU A   1     -12.758   7.402  10.558  0.00  0.00    +0.000 C 
ATOM     41  N   LEU A   2     -12.646   6.188  11.102  0.00  0.00    +0.000 N 
ATOM     42  H   LEU A   2     -12.785   6.067  12.126  0.00  0.00    +0.000 HD
ATOM     43  O   GLU A   1     -12.602   7.604   9.350  0.00  0.00    +0.000 OA
BRANCH  40  44
ATOM     44  CA  GLU A   1     -13.112   8.554  11.489  0.00  0.00    +0.000 C 
BRANCH  44  45
ATOM     45  N   GLU A   1     -13.953   8.137  12.601  0.00  0.00    +0.000 NA
ATOM     46  H   GLU A   1     -13.584   7.462  13.300  0.00  0.00    +0.000 HD
ENDBRANCH  44  45
BRANCH  44  47
ATOM     47  CB  GLU A   1     -11.824   9.272  11.994  0.00  0.00    +0.000 C 
ATOM     48  CG2 GLU A   1     -11.055   8.378  12.966  0.00  0.00    +0.000 C 
BRANCH  47  49
ATOM     49  CG1 GLU A   1     -10.964   9.687  10.801  0.00  0.00    +0.000 C 
ATOM     50  CD1 GLU A   1      -9.860  10.695  11.172  0.00  0.00    +0.000 C 
ENDBRANCH  47  49
ENDBRANCH  44  47
ENDBRANCH  40  44
ENDBRANCH  39  41
BRANCH  39  51
ATOM     51  CB  LEU A   2     -10.871   5.096   9.800  0.00  0.00    +0.000 C 
BRANCH  51  52
ATOM     52  CG  LEU A   2      -9.831   5.127  10.962  0.00  0.00    +0.000 C 
BRANCH  52  53
ATOM     53  CD  LEU A   2      -9.044   3.830  11.120  0.00  0.00    +0.000 C 
ATOM     54  NE2 LEU A   2      -7.761   3.951  11.461  0.00  0.00    +0.000 N 
ATOM     55 HE21 LEU A   2      -7.176   3.102  11.594  0.00  0.00    +0.000 HD
ATOM     56 HE22 LEU A   2      -7.345   4.895  11.594  0.00  0.00    +0.000 HD
ATOM     57  OE1 LEU A   2      -9.580   2.740  10.952  0.00  0.00    +0.000 OA
ENDBRANCH  52  53
ENDBRANCH  51  52
ENDBRANCH  39  51
ENDBRANCH  35  39
ENDBRANCH  34  37
BRANCH  34  58
ATOM     58  C   UNK A   3     -14.043   0.738  11.192  0.00  0.00    +0.000 C 
BRANCH  58  59
ATOM     59  C   UNK A   3     -14.742   0.236   9.948  0.00  0.00    +0.000 A 
ATOM     60  C   UNK A   3     -15.844   0.926   9.450  0.00  0.00    +0.000 A 
ATOM     61  C   UNK A   3     -16.560   0.445   8.356  0.00  0.00    +0.000 A 
ATOM     62  C   UNK A   3     -16.169  -0.745   7.740  0.00  0.00    +0.000 A 
ATOM     63  C   UNK A   3     -15.065  -1.446   8.220  0.00  0.00    +0.000 A 
ATOM     64  C   UNK A   3     -14.354  -0.949   9.327  0.00  0.00    +0.000 A 
ENDBRANCH  58  59
ENDBRANCH  34  58
ENDBRANCH  30  34
ENDBRANCH   6  31
BRANCH  14  65
ATOM     65  C   UNK A   6      -7.223  -8.775  12.400  0.00  0.00    +0.000 C 
ATOM     66  O   UNK A   6      -8.255  -9.136  12.947  0.00  0.00    +0.000 OA
ENDBRANCH  14  65
BRANCH  10  67
ATOM     67  CB  VAL A   5     -10.360  -6.265  10.481  0.00  0.00    +0.000 C 
BRANCH  67  68
ATOM     68  CG  VAL A   5     -11.782  -5.940  10.111  0.00  0.00    +0.000 A 
ATOM     69  CD2 VAL A   5     -12.841  -6.517  10.815  0.00  0.00    +0.000 A 
ATOM     70  CE2 VAL A   5     -14.162  -6.293  10.437  0.00  0.00    +0.000 A 
ATOM     71  CZ  VAL A   5     -14.442  -5.469   9.330  0.00  0.00    +0.000 A 
ATOM     72  CE1 VAL A   5     -13.393  -4.881   8.622  0.00  0.00    +0.000 A 
ATOM     73  CD1 VAL A   5     -12.066  -5.120   9.015  0.00  0.00    +0.000 A 
ENDBRANCH  67  68
ENDBRANCH  10  67
ENDBRANCH   1  19
BRANCH   5  74
ATOM     74  C   UNK A   6     -10.165  -1.240  15.541  0.00  0.00    +0.000 C 
BRANCH  74  75
ATOM     75  C   UNK A   6     -11.686  -1.484  15.448  0.00  0.00    +0.000 C 
BRANCH  75  76
ATOM     76  N   UNK A   6     -11.946  -2.687  14.677  0.00  0.00    +0.000 N 
ATOM     77  C   LEU A   2     -12.600  -3.722  15.187  0.00  0.00    +0.000 C 
ATOM     78  O   LEU A   2     -13.021  -3.752  16.345  0.00  0.00    +0.000 OA
ATOM     79  H   UNK A   6     -11.609  -2.738  13.694  0.00  0.00    +0.000 HD
BRANCH  77  80
ATOM     80  CA  LEU A   2     -12.818  -4.903  14.246  0.00  0.00    +0.000 C 
BRANCH  80  81
ATOM     81  N   LEU A   2     -12.416  -6.125  14.935  0.00  0.00    +0.000 N 
ATOM     82  H   LEU A   2     -13.101  -6.556  15.589  0.00  0.00    +0.000 HD
ATOM     83  C   GLU A   1     -11.239  -6.730  14.790  0.00  0.00    +0.000 C 
ATOM     84  O   GLU A   1     -10.341  -6.348  14.025  0.00  0.00    +0.000 OA
BRANCH  83  85
ATOM     85  CA  GLU A   1     -11.065  -7.985  15.630  0.00  0.00    +0.000 C 
BRANCH  85  86
ATOM     86  N   GLU A   1     -10.542  -9.038  14.763  0.00  0.00    +0.000 NA
ATOM     87  H   GLU A   1      -9.886  -8.787  13.996  0.00  0.00    +0.000 HD
ENDBRANCH  85  86
BRANCH  85  88
ATOM     88  CB  GLU A   1     -10.090  -7.726  16.789  0.00  0.00    +0.000 C 
BRANCH  88  89
ATOM     89  CG  GLU A   1     -10.592  -6.744  17.854  0.00  0.00    +0.000 C 
BRANCH  89  90
ATOM     90  CD  GLU A   1      -9.656  -6.665  19.050  0.00  0.00    +0.000 C 
ATOM     91  OE2 GLU A   1      -9.563  -5.577  19.662  0.00  0.00    +0.000 OA
ATOM     92  OE1 GLU A   1      -9.033  -7.695  19.383  0.00  0.00    +0.000 OA
ENDBRANCH  89  90
ENDBRANCH  88  89
ENDBRANCH  85  88
ENDBRANCH  83  85
ENDBRANCH  80  81
BRANCH  80  93
ATOM     93  CB  LEU A   2     -14.313  -4.990  13.893  0.00  0.00    +0.000 C 
BRANCH  93  94
ATOM     94  CG  LEU A   2     -15.056  -3.724  13.434  0.00  0.00    +0.000 C 
ATOM     95  CD2 LEU A   2     -16.538  -4.047  13.208  0.00  0.00    +0.000 C 
ATOM     96  CD1 LEU A   2     -14.422  -3.207  12.154  0.00  0.00    +0.000 C 
ENDBRANCH  93  94
ENDBRANCH  80  93
ENDBRANCH  77  80
ENDBRANCH  75  76
BRANCH  75  97
ATOM     97  C   UNK A   6     -12.349  -0.295  14.772  0.00  0.00    +0.000 C 
ATOM     98  N   UNK A   4     -13.305   0.319  15.463  0.00  0.00    +0.000 N 
ATOM     99  H   UNK A   4     -13.583  -0.059  16.391  0.00  0.00    +0.000 HD
ATOM    100  O   UNK A   6     -12.018   0.028  13.616  0.00  0.00    +0.000 OA
BRANCH  98 101
ATOM    101  C   UNK A   4     -13.977   1.519  14.946  0.00  0.00    +0.000 C 
BRANCH 101 102
ATOM    102  C   UNK A   4     -13.328   2.651  15.754  0.00  0.00    +0.000 C 
ATOM    103  O   UNK A   4     -13.496   2.741  16.970  0.00  0.00    +0.000 OA
ATOM    104  N   VAL A   5     -12.560   3.486  15.059  0.00  0.00    +0.000 N 
ATOM    105  H   VAL A   5     -12.506   3.365  14.027  0.00  0.00    +0.000 HD
BRANCH 104 106
ATOM    106  CA  VAL A   5     -11.786   4.568  15.675  0.00  0.00    +0.000 C 
BRANCH 106 107
ATOM    107  C   VAL A   5     -12.541   5.896  15.697  0.00  0.00    +0.000 C 
ATOM    108  N   UNK A   6     -12.581   6.532  16.869  0.00  0.00    +0.000 N 
ATOM    109  H   UNK A   6     -12.097   6.101  17.683  0.00  0.00    +0.000 HD
ATOM    110  O   VAL A   5     -13.055   6.324  14.665  0.00  0.00    +0.000 OA
BRANCH 108 111
ATOM    111  C   UNK A   6     -13.276   7.813  17.066  0.00  0.00    +0.000 C 
BRANCH 111 112
ATOM    112  C   UNK A   6     -12.381   8.826  17.797  0.00  0.00    +0.000 C 
ATOM    113  O   UNK A   6     -11.591   8.451  18.678  0.00  0.00    +0.000 OA
ATOM    114  N   TRP A   7     -12.508  10.105  17.453  0.00  0.00    +0.000 N 
ATOM    115  H   TRP A   7     -13.156  10.376  16.686  0.00  0.00    +0.000 HD
BRANCH 114 116
ATOM    116  CA  TRP A   7     -11.736  11.129  18.153  0.00  0.00    +0.000 C 
BRANCH 116 117
ATOM    117  C   TRP A   7     -12.634  12.096  18.927  0.00  0.00    +0.000 C 
ATOM    118  O   TRP A   7     -13.749  12.420  18.499  0.00  0.00    +0.000 OA
ENDBRANCH 116 117
BRANCH 116 119
ATOM    119  CB  TRP A   7     -10.821  11.901  17.192  0.00  0.00    +0.000 C 
BRANCH 119 120
ATOM    120  CG  TRP A   7     -11.502  12.505  16.008  0.00  0.00    +0.000 A 
ATOM    121  CD2 TRP A   7     -11.963  13.851  15.882  0.00  0.00    +0.000 A 
ATOM    122  CE3 TRP A   7     -11.970  14.964  16.736  0.00  0.00    +0.000 A 
ATOM    123  CZ3 TRP A   7     -12.513  16.162  16.272  0.00  0.00    +0.000 A 
ATOM    124  CH2 TRP A   7     -13.047  16.257  14.969  0.00  0.00    +0.000 A 
ATOM    125  CZ2 TRP A   7     -13.053  15.183  14.116  0.00  0.00    +0.000 A 
ATOM    126  CE2 TRP A   7     -12.507  13.982  14.582  0.00  0.00    +0.000 A 
ATOM    127  NE1 TRP A   7     -12.377  12.767  13.959  0.00  0.00    +0.000 N 
ATOM    128  HE1 TRP A   7     -12.685  12.548  12.990  0.00  0.00    +0.000 HD
ATOM    129  CD1 TRP A   7     -11.776  11.890  14.821  0.00  0.00    +0.000 A 
ENDBRANCH 119 120
ENDBRANCH 116 119
ENDBRANCH 114 116
ENDBRANCH 111 112
BRANCH 111 130
ATOM    130  C   UNK A   6     -14.538   7.645  17.940  0.00  0.00    +0.000 C 
BRANCH 130 131
ATOM    131  C   UNK A   6     -15.418   6.497  17.553  0.00  0.00    +0.000 A 
ATOM    132  N   UNK A   6     -15.063   5.185  17.772  0.00  0.00    +0.000 NA
ATOM    133  C   UNK A   6     -16.032   4.390  17.345  0.00  0.00    +0.000 A 
ATOM    134  N   UNK A   6     -17.006   5.142  16.859  0.00  0.00    +0.000 NA
ATOM    135  C   UNK A   6     -16.646   6.464  16.977  0.00  0.00    +0.000 A 
ENDBRANCH 130 131
ENDBRANCH 111 130
ENDBRANCH 108 111
ENDBRANCH 106 107
BRANCH 106 136
ATOM    136  CB  VAL A   5     -10.449   4.749  14.912  0.00  0.00    +0.000 C 
ATOM    137  CG2 VAL A   5      -9.553   5.758  15.620  0.00  0.00    +0.000 C 
ATOM    138  CG1 VAL A   5      -9.751   3.401  14.775  0.00  0.00    +0.000 C 
ENDBRANCH 106 136
ENDBRANCH 104 106
ENDBRANCH 101 102
BRANCH 101 139
ATOM    139  C   UNK A   4     -15.487   1.440  15.188  0.00  0.00    +0.000 C 
BRANCH 139 140
ATOM    140  C   UNK A   4     -16.166   0.338  14.335  0.00  0.00    +0.000 C 
ATOM    141  C   UNK A   4     -16.966  -0.590  15.227  0.00  0.00    +0.000 C 
ATOM    142  C   UNK A   4     -17.091   0.988  13.286  0.00  0.00    +0.000 C 
ENDBRANCH 139 140
ENDBRANCH 101 139
ENDBRANCH  98 101
ENDBRANCH  75  97
ENDBRANCH  74  75
ENDBRANCH   5  74
TORSDOF 46
REMARK  Name = ../refined-set-2016/4xe1/4xe1_pocket.pdb
REMARK  144 active torsions:
REMARK  status: ('A' for Active; 'I' for Inactive)
REMARK    1  A    between atoms: _1  and  _3
REMARK    2  A    between atoms: _3  and  _4
REMARK    3  A    between atoms: _3  and  _6
REMARK    4  A    between atoms: _6  and  _7
REMARK    5  A    between atoms: _17  and  _19
REMARK    6  A    between atoms: _19  and  _20
REMARK    7  A    between atoms: _19  and  _22
REMARK    8  A    between atoms: _22  and  _23
REMARK    9  A    between atoms: _28  and  _29
REMARK   10  A    between atoms: _31  and  _33
REMARK   11  A    between atoms: _33  and  _34
REMARK   12  A    between atoms: _33  and  _36
REMARK   13  A    between atoms: _36  and  _37
REMARK   14  A    between atoms: _40  and  _41
REMARK   15  A    between atoms: _46  and  _48
REMARK   16  A    between atoms: _48  and  _49
REMARK   17  A    between atoms: _48  and  _51
REMARK   18  A    between atoms: _51  and  _52
REMARK   19  A    between atoms: _57  and  _59
REMARK   20  A    between atoms: _59  and  _60
REMARK   21  A    between atoms: _63  and  _65
REMARK   22  A    between atoms: _65  and  _66
REMARK   23  A    between atoms: _65  and  _68
REMARK   24  A    between atoms: _68  and  _69
REMARK   25  A    between atoms: _74  and  _76
REMARK   26  A    between atoms: _76  and  _77
REMARK   27  A    between atoms: _76  and  _79
REMARK   28  A    between atoms: _79  and  _80
REMARK   29  A    between atoms: _83  and  _85
REMARK   30  A    between atoms: _85  and  _86
REMARK   31  A    between atoms: _85  and  _88
REMARK   32  A    between atoms: _88  and  _89
REMARK   33  A    between atoms: _89  and  _90
REMARK   34  A    between atoms: _95  and  _97
REMARK   35  A    between atoms: _97  and  _98
REMARK   36  A    between atoms: _97  and  _100
REMARK   37  A    between atoms: _100  and  _101
REMARK   38  A    between atoms: _107  and  _109
REMARK   39  A    between atoms: _120  and  _123
REMARK   40  A    between atoms: _123  and  _124
REMARK   41  A    between atoms: _132  and  _133
REMARK   42  A    between atoms: _141  and  _143
REMARK   43  A    between atoms: _143  and  _144
REMARK   44  A    between atoms: _143  and  _146
REMARK   45  A    between atoms: _146  and  _147
REMARK   46  A    between atoms: _147  and  _148
REMARK   47  A    between atoms: _151  and  _153
REMARK   48  A    between atoms: _153  and  _154
REMARK   49  A    between atoms: _153  and  _156
REMARK   50  A    between atoms: _156  and  _157
REMARK   51  A    between atoms: _162  and  _164
REMARK   52  A    between atoms: _164  and  _165
REMARK   53  A    between atoms: _164  and  _167
REMARK   54  A    between atoms: _167  and  _168
REMARK   55  A    between atoms: _168  and  _169
REMARK   56  A    between atoms: _172  and  _174
REMARK   57  A    between atoms: _174  and  _175
REMARK   58  A    between atoms: _174  and  _177
REMARK   59  A    between atoms: _177  and  _178
REMARK   60  A    between atoms: _181  and  _183
REMARK   61  A    between atoms: _183  and  _184
REMARK   62  A    between atoms: _183  and  _186
REMARK   63  A    between atoms: _186  and  _187
REMARK   64  A    between atoms: _188  and  ZN_412
REMARK   65  A    between atoms: _192  and  _194
REMARK   66  A    between atoms: _194  and  _195
REMARK   67  A    between atoms: _194  and  _197
REMARK   68  A    between atoms: _197  and  _198
REMARK   69  A    between atoms: _201  and  _203
REMARK   70  A    between atoms: _203  and  _204
REMARK   71  A    between atoms: _203  and  _206
REMARK   72  A    between atoms: _209  and  _211
REMARK   73  A    between atoms: _211  and  _212
REMARK   74  A    between atoms: _211  and  _214
REMARK   75  A    between atoms: _214  and  _215
REMARK   76  A    between atoms: _220  and  _222
REMARK   77  A    between atoms: _222  and  _223
REMARK   78  A    between atoms: _222  and  _225
REMARK   79  A    between atoms: _225  and  _226
REMARK   80  A    between atoms: _236  and  _238
REMARK   81  A    between atoms: _238  and  _239
REMARK   82  A    between atoms: _238  and  _241
REMARK   83  A    between atoms: _241  and  _242
REMARK   84  A    between atoms: _248  and  _250
REMARK   85  A    between atoms: _250  and  _251
REMARK   86  A    between atoms: _250  and  _253
REMARK   87  A    between atoms: _256  and  _258
REMARK   88  A    between atoms: _258  and  _259
REMARK   89  A    between atoms: _258  and  _261
REMARK   90  A    between atoms: _261  and  _262
REMARK   91  A    between atoms: _265  and  _267
REMARK   92  A    between atoms: _267  and  _268
REMARK   93  A    between atoms: _271  and  _273
REMARK   94  A    between atoms: _273  and  _274
REMARK   95  A    between atoms: _273  and  _276
REMARK   96  A    between atoms: _279  and  _281
REMARK   97  A    between atoms: _281  and  _282
REMARK   98  A    between atoms: _281  and  _284
REMARK   99  A    between atoms: _284  and  _285
REMARK  100  A    between atoms: _288  and  _290
REMARK  101  A    between atoms: _290  and  _291
REMARK  102  A    between atoms: _293  and  _295
REMARK  103  A    between atoms: _295  and  _296
REMARK  104  A    between atoms: _295  and  _298
REMARK  105  A    between atoms: _298  and  _299
REMARK  106  A    between atoms: _301  and  _303
REMARK  107  A    between atoms: _303  and  _304
REMARK  108  A    between atoms: _303  and  _306
REMARK  109  A    between atoms: _306  and  _307
REMARK  110  A    between atoms: _310  and  _312
REMARK  111  A    between atoms: _312  and  _313
REMARK  112  A    between atoms: _312  and  _315
REMARK  113  A    between atoms: _315  and  _316
REMARK  114  A    between atoms: _319  and  _321
REMARK  115  A    between atoms: _321  and  _322
REMARK  116  A    between atoms: _321  and  _324
REMARK  117  A    between atoms: _324  and  _325
REMARK  118  A    between atoms: _329  and  _330
REMARK  119  A    between atoms: _336  and  _337
REMARK  120  A    between atoms: _342  and  _344
REMARK  121  A    between atoms: _344  and  _345
REMARK  122  A    between atoms: _344  and  _347
REMARK  123  A    between atoms: _347  and  _348
REMARK  124  A    between atoms: _351  and  _353
REMARK  125  A    between atoms: _353  and  _354
REMARK  126  A    between atoms: _353  and  _356
REMARK  127  A    between atoms: _356  and  _357
REMARK  128  A    between atoms: _360  and  _362
REMARK  129  A    between atoms: _362  and  _363
REMARK  130  A    between atoms: _362  and  _365
REMARK  131  A    between atoms: _368  and  _370
REMARK  132  A    between atoms: _370  and  _371
REMARK  133  A    between atoms: _370  and  _373
REMARK  134  A    between atoms: _373  and  _374
REMARK  135  A    between atoms: _384  and  _386
REMARK  136  A    between atoms: _386  and  _387
REMARK  137  A    between atoms: _386  and  _389
REMARK  138  A    between atoms: _389  and  _390
REMARK  139  A    between atoms: _395  and  _397
REMARK  140  A    between atoms: _397  and  _398
REMARK  141  A    between atoms: _397  and  _400
REMARK  142  A    between atoms: _400  and  _401
REMARK  143  A    between atoms: _401  and  _402
REMARK  144  A    between atoms: _402  and  _403
REMARK                            x       y       z     vdW  Elec       q    Type
REMARK                         _______ _______ _______ _____ _____    ______ ____
ROOT
ATOM      1  C   GLU A   1      -5.887  -8.533  20.951  0.00  0.00    +0.238 C 
ATOM      2  O   GLU A   1      -5.085  -9.080  21.711  0.00  0.00    -0.274 OA
ATOM      3  N   HIS A   2      -7.070  -8.080  21.363  0.00  0.00    -0.298 N 
ATOM      4  H   HIS A   2      -7.696  -7.564  20.712  0.00  0.00    +0.150 HD
ENDROOT
BRANCH   1   5
ATOM      5  CA  GLU A   1      -5.547  -8.354  19.479  0.00  0.00    +0.145 C 
BRANCH   5   6
ATOM      6  N   GLU A   1      -6.621  -8.992  18.731  0.00  0.00    -0.238 NA
ATOM      7  H   GLU A   1      -7.494  -8.462  18.537  0.00  0.00    +0.142 HD
ENDBRANCH   5   6
BRANCH   5   8
ATOM      8  CB  GLU A   1      -5.448  -6.887  19.072  0.00  0.00    +0.038 C 
BRANCH   8   9
ATOM      9  CG  GLU A   1      -5.111  -6.751  17.581  0.00  0.00    +0.116 C 
BRANCH   9  10
ATOM     10  CD  GLU A   1      -4.340  -5.492  17.272  0.00  0.00    +0.365 C 
ATOM     11  OE2 GLU A   1      -4.923  -4.400  17.398  0.00  0.00    -0.246 OA
ATOM     12  OE1 GLU A   1      -3.152  -5.608  16.910  0.00  0.00    -0.246 OA
ENDBRANCH   9  10
ENDBRANCH   8   9
ENDBRANCH   5   8
ENDBRANCH   1   5
BRANCH   3  13
ATOM     13  CA  HIS A   2      -7.470  -8.321  22.742  0.00  0.00    +0.143 C 
BRANCH  13  14
ATOM     14  C   HIS A   2      -7.824  -9.801  22.829  0.00  0.00    +0.227 C 
ATOM     15  O   HIS A   2      -8.148 -10.432  21.814  0.00  0.00    -0.286 OA
ENDBRANCH  13  14
BRANCH  13  16
ATOM     16  CB  HIS A   2      -8.694  -7.485  23.122  0.00  0.00    +0.075 C 
BRANCH  16  17
ATOM     17  CG  HIS A   2      -8.390  -6.028  23.272  0.00  0.00    +0.082 A 
ATOM     18  CD2 HIS A   2      -7.923  -5.324  24.332  0.00  0.00    +0.115 A 
ATOM     19  NE2 HIS A   2      -7.706  -4.039  23.901  0.00  0.00    -0.221 NA
ATOM     20  CE1 HIS A   2      -8.032  -3.955  22.622  0.00  0.00    +0.199 A 
ATOM     21  ND1 HIS A   2      -8.451  -5.143  22.218  0.00  0.00    -0.227 NA
ENDBRANCH  16  17
ENDBRANCH  13  16
ENDBRANCH   3  13
TORSDOF 9
REMARK  Name = ../refined-set-2016/4xe1/4xe1_pocket.pdb
REMARK  144 active torsions:
REMARK  status: ('A' for Active; 'I' for Inactive)
REMARK    1  A    between atoms: _1  and  _3
REMARK    2  A    between atoms: _3  and  _4
REMARK    3  A    between atoms: _3  and  _6
REMARK    4  A    between atoms: _6  and  _7
REMARK    5  A    between atoms: _17  and  _19
REMARK    6  A    between atoms: _19  and  _20
REMARK    7  A    between atoms: _19  and  _22
REMARK    8  A    between atoms: _22  and  _23
REMARK    9  A    between atoms: _28  and  _29
REMARK   10  A    between atoms: _31  and  _33
REMARK   11  A    between atoms: _33  and  _34
REMARK   12  A    between atoms: _33  and  _36
REMARK   13  A    between atoms: _36  and  _37
REMARK   14  A    between atoms: _40  and  _41
REMARK   15  A    between atoms: _46  and  _48
REMARK   16  A    between atoms: _48  and  _49
REMARK   17  A    between atoms: _48  and  _51
REMARK   18  A    between atoms: _51  and  _52
REMARK   19  A    between atoms: _57  and  _59
REMARK   20  A    between atoms: _59  and  _60
REMARK   21  A    between atoms: _63  and  _65
REMARK   22  A    between atoms: _65  and  _66
REMARK   23  A    between atoms: _65  and  _68
REMARK   24  A    between atoms: _68  and  _69
REMARK   25  A    between atoms: _74  and  _76
REMARK   26  A    between atoms: _76  and  _77
REMARK   27  A    between atoms: _76  and  _79
REMARK   28  A    between atoms: _79  and  _80
REMARK   29  A    between atoms: _83  and  _85
REMARK   30  A    between atoms: _85  and  _86
REMARK   31  A    between atoms: _85  and  _88
REMARK   32  A    between atoms: _88  and  _89
REMARK   33  A    between atoms: _89  and  _90
REMARK   34  A    between atoms: _95  and  _97
REMARK   35  A    between atoms: _97  and  _98
REMARK   36  A    between atoms: _97  and  _100
REMARK   37  A    between atoms: _100  and  _101
REMARK   38  A    between atoms: _107  and  _109
REMARK   39  A    between atoms: _120  and  _123
REMARK   40  A    between atoms: _123  and  _124
REMARK   41  A    between atoms: _132  and  _133
REMARK   42  A    between atoms: _141  and  _143
REMARK   43  A    between atoms: _143  and  _144
REMARK   44  A    between atoms: _143  and  _146
REMARK   45  A    between atoms: _146  and  _147
REMARK   46  A    between atoms: _147  and  _148
REMARK   47  A    between atoms: _151  and  _153
REMARK   48  A    between atoms: _153  and  _154
REMARK   49  A    between atoms: _153  and  _156
REMARK   50  A    between atoms: _156  and  _157
REMARK   51  A    between atoms: _162  and  _164
REMARK   52  A    between atoms: _164  and  _165
REMARK   53  A    between atoms: _164  and  _167
REMARK   54  A    between atoms: _167  and  _168
REMARK   55  A    between atoms: _168  and  _169
REMARK   56  A    between atoms: _172  and  _174
REMARK   57  A    between atoms: _174  and  _175
REMARK   58  A    between atoms: _174  and  _177
REMARK   59  A    between atoms: _177  and  _178
REMARK   60  A    between atoms: _181  and  _183
REMARK   61  A    between atoms: _183  and  _184
REMARK   62  A    between atoms: _183  and  _186
REMARK   63  A    between atoms: _186  and  _187
REMARK   64  A    between atoms: _188  and  ZN_412
REMARK   65  A    between atoms: _192  and  _194
REMARK   66  A    between atoms: _194  and  _195
REMARK   67  A    between atoms: _194  and  _197
REMARK   68  A    between atoms: _197  and  _198
REMARK   69  A    between atoms: _201  and  _203
REMARK   70  A    between atoms: _203  and  _204
REMARK   71  A    between atoms: _203  and  _206
REMARK   72  A    between atoms: _209  and  _211
REMARK   73  A    between atoms: _211  and  _212
REMARK   74  A    between atoms: _211  and  _214
REMARK   75  A    between atoms: _214  and  _215
REMARK   76  A    between atoms: _220  and  _222
REMARK   77  A    between atoms: _222  and  _223
REMARK   78  A    between atoms: _222  and  _225
REMARK   79  A    between atoms: _225  and  _226
REMARK   80  A    between atoms: _236  and  _238
REMARK   81  A    between atoms: _238  and  _239
REMARK   82  A    between atoms: _238  and  _241
REMARK   83  A    between atoms: _241  and  _242
REMARK   84  A    between atoms: _248  and  _250
REMARK   85  A    between atoms: _250  and  _251
REMARK   86  A    between atoms: _250  and  _253
REMARK   87  A    between atoms: _256  and  _258
REMARK   88  A    between atoms: _258  and  _259
REMARK   89  A    between atoms: _258  and  _261
REMARK   90  A    between atoms: _261  and  _262
REMARK   91  A    between atoms: _265  and  _267
REMARK   92  A    between atoms: _267  and  _268
REMARK   93  A    between atoms: _271  and  _273
REMARK   94  A    between atoms: _273  and  _274
REMARK   95  A    between atoms: _273  and  _276
REMARK   96  A    between atoms: _279  and  _281
REMARK   97  A    between atoms: _281  and  _282
REMARK   98  A    between atoms: _281  and  _284
REMARK   99  A    between atoms: _284  and  _285
REMARK  100  A    between atoms: _288  and  _290
REMARK  101  A    between atoms: _290  and  _291
REMARK  102  A    between atoms: _293  and  _295
REMARK  103  A    between atoms: _295  and  _296
REMARK  104  A    between atoms: _295  and  _298
REMARK  105  A    between atoms: _298  and  _299
REMARK  106  A    between atoms: _301  and  _303
REMARK  107  A    between atoms: _303  and  _304
REMARK  108  A    between atoms: _303  and  _306
REMARK  109  A    between atoms: _306  and  _307
REMARK  110  A    between atoms: _310  and  _312
REMARK  111  A    between atoms: _312  and  _313
REMARK  112  A    between atoms: _312  and  _315
REMARK  113  A    between atoms: _315  and  _316
REMARK  114  A    between atoms: _319  and  _321
REMARK  115  A    between atoms: _321  and  _322
REMARK  116  A    between atoms: _321  and  _324
REMARK  117  A    between atoms: _324  and  _325
REMARK  118  A    between atoms: _329  and  _330
REMARK  119  A    between atoms: _336  and  _337
REMARK  120  A    between atoms: _342  and  _344
REMARK  121  A    between atoms: _344  and  _345
REMARK  122  A    between atoms: _344  and  _347
REMARK  123  A    between atoms: _347  and  _348
REMARK  124  A    between atoms: _351  and  _353
REMARK  125  A    between atoms: _353  and  _354
REMARK  126  A    between atoms: _353  and  _356
REMARK  127  A    between atoms: _356  and  _357
REMARK  128  A    between atoms: _360  and  _362
REMARK  129  A    between atoms: _362  and  _363
REMARK  130  A    between atoms: _362  and  _365
REMARK  131  A    between atoms: _368  and  _370
REMARK  132  A    between atoms: _370  and  _371
REMARK  133  A    between atoms: _370  and  _373
REMARK  134  A    between atoms: _373  and  _374
REMARK  135  A    between atoms: _384  and  _386
REMARK  136  A    between atoms: _386  and  _387
REMARK  137  A    between atoms: _386  and  _389
REMARK  138  A    between atoms: _389  and  _390
REMARK  139  A    between atoms: _395  and  _397
REMARK  140  A    between atoms: _397  and  _398
REMARK  141  A    between atoms: _397  and  _400
REMARK  142  A    between atoms: _400  and  _401
REMARK  143  A    between atoms: _401  and  _402
REMARK  144  A    between atoms: _402  and  _403
REMARK                            x       y       z     vdW  Elec       q    Type
REMARK                         _______ _______ _______ _____ _____    ______ ____
ROOT
ATOM      1  CB  PHE A   1      -8.077  13.175  13.793  0.00  0.00    +0.051 C 
ENDROOT
BRANCH   1   2
ATOM      2  CG  PHE A   1      -7.223  11.953  13.970  0.00  0.00    -0.020 A 
ATOM      3  CD2 PHE A   1      -7.748  10.804  14.562  0.00  0.00    -0.004 A 
ATOM      4  CE2 PHE A   1      -6.949   9.668  14.741  0.00  0.00    -0.000 A 
ATOM      5  CZ  PHE A   1      -5.626   9.678  14.326  0.00  0.00    -0.000 A 
ATOM      6  CE1 PHE A   1      -5.097  10.818  13.737  0.00  0.00    -0.000 A 
ATOM      7  CD1 PHE A   1      -5.896  11.948  13.563  0.00  0.00    -0.004 A 
ENDBRANCH   1   2
BRANCH   1   8
ATOM      8  CA  PHE A   1      -8.005  14.164  14.964  0.00  0.00    +0.137 C 
BRANCH   8   9
ATOM      9  N   PHE A   1      -8.711  15.390  14.602  0.00  0.00    -0.239 NA
ATOM     10  H   PHE A   1      -9.157  15.462  13.665  0.00  0.00    +0.142 HD
ENDBRANCH   8   9
BRANCH   8  11
ATOM     11  C   PHE A   1      -6.551  14.439  15.338  0.00  0.00    +0.224 C 
ATOM     12  O   PHE A   1      -6.032  13.863  16.291  0.00  0.00    -0.287 OA
ENDBRANCH   8  11
ENDBRANCH   1   8
TORSDOF 4
REMARK  Name = ../refined-set-2016/4xe1/4xe1_pocket.pdb
REMARK  144 active torsions:
REMARK  status: ('A' for Active; 'I' for Inactive)
REMARK    1  A    between atoms: _1  and  _3
REMARK    2  A    between atoms: _3  and  _4
REMARK    3  A    between atoms: _3  and  _6
REMARK    4  A    between atoms: _6  and  _7
REMARK    5  A    between atoms: _17  and  _19
REMARK    6  A    between atoms: _19  and  _20
REMARK    7  A    between atoms: _19  and  _22
REMARK    8  A    between atoms: _22  and  _23
REMARK    9  A    between atoms: _28  and  _29
REMARK   10  A    between atoms: _31  and  _33
REMARK   11  A    between atoms: _33  and  _34
REMARK   12  A    between atoms: _33  and  _36
REMARK   13  A    between atoms: _36  and  _37
REMARK   14  A    between atoms: _40  and  _41
REMARK   15  A    between atoms: _46  and  _48
REMARK   16  A    between atoms: _48  and  _49
REMARK   17  A    between atoms: _48  and  _51
REMARK   18  A    between atoms: _51  and  _52
REMARK   19  A    between atoms: _57  and  _59
REMARK   20  A    between atoms: _59  and  _60
REMARK   21  A    between atoms: _63  and  _65
REMARK   22  A    between atoms: _65  and  _66
REMARK   23  A    between atoms: _65  and  _68
REMARK   24  A    between atoms: _68  and  _69
REMARK   25  A    between atoms: _74  and  _76
REMARK   26  A    between atoms: _76  and  _77
REMARK   27  A    between atoms: _76  and  _79
REMARK   28  A    between atoms: _79  and  _80
REMARK   29  A    between atoms: _83  and  _85
REMARK   30  A    between atoms: _85  and  _86
REMARK   31  A    between atoms: _85  and  _88
REMARK   32  A    between atoms: _88  and  _89
REMARK   33  A    between atoms: _89  and  _90
REMARK   34  A    between atoms: _95  and  _97
REMARK   35  A    between atoms: _97  and  _98
REMARK   36  A    between atoms: _97  and  _100
REMARK   37  A    between atoms: _100  and  _101
REMARK   38  A    between atoms: _107  and  _109
REMARK   39  A    between atoms: _120  and  _123
REMARK   40  A    between atoms: _123  and  _124
REMARK   41  A    between atoms: _132  and  _133
REMARK   42  A    between atoms: _141  and  _143
REMARK   43  A    between atoms: _143  and  _144
REMARK   44  A    between atoms: _143  and  _146
REMARK   45  A    between atoms: _146  and  _147
REMARK   46  A    between atoms: _147  and  _148
REMARK   47  A    between atoms: _151  and  _153
REMARK   48  A    between atoms: _153  and  _154
REMARK   49  A    between atoms: _153  and  _156
REMARK   50  A    between atoms: _156  and  _157
REMARK   51  A    between atoms: _162  and  _164
REMARK   52  A    between atoms: _164  and  _165
REMARK   53  A    between atoms: _164  and  _167
REMARK   54  A    between atoms: _167  and  _168
REMARK   55  A    between atoms: _168  and  _169
REMARK   56  A    between atoms: _172  and  _174
REMARK   57  A    between atoms: _174  and  _175
REMARK   58  A    between atoms: _174  and  _177
REMARK   59  A    between atoms: _177  and  _178
REMARK   60  A    between atoms: _181  and  _183
REMARK   61  A    between atoms: _183  and  _184
REMARK   62  A    between atoms: _183  and  _186
REMARK   63  A    between atoms: _186  and  _187
REMARK   64  A    between atoms: _188  and  ZN_412
REMARK   65  A    between atoms: _192  and  _194
REMARK   66  A    between atoms: _194  and  _195
REMARK   67  A    between atoms: _194  and  _197
REMARK   68  A    between atoms: _197  and  _198
REMARK   69  A    between atoms: _201  and  _203
REMARK   70  A    between atoms: _203  and  _204
REMARK   71  A    between atoms: _203  and  _206
REMARK   72  A    between atoms: _209  and  _211
REMARK   73  A    between atoms: _211  and  _212
REMARK   74  A    between atoms: _211  and  _214
REMARK   75  A    between atoms: _214  and  _215
REMARK   76  A    between atoms: _220  and  _222
REMARK   77  A    between atoms: _222  and  _223
REMARK   78  A    between atoms: _222  and  _225
REMARK   79  A    between atoms: _225  and  _226
REMARK   80  A    between atoms: _236  and  _238
REMARK   81  A    between atoms: _238  and  _239
REMARK   82  A    between atoms: _238  and  _241
REMARK   83  A    between atoms: _241  and  _242
REMARK   84  A    between atoms: _248  and  _250
REMARK   85  A    between atoms: _250  and  _251
REMARK   86  A    between atoms: _250  and  _253
REMARK   87  A    between atoms: _256  and  _258
REMARK   88  A    between atoms: _258  and  _259
REMARK   89  A    between atoms: _258  and  _261
REMARK   90  A    between atoms: _261  and  _262
REMARK   91  A    between atoms: _265  and  _267
REMARK   92  A    between atoms: _267  and  _268
REMARK   93  A    between atoms: _271  and  _273
REMARK   94  A    between atoms: _273  and  _274
REMARK   95  A    between atoms: _273  and  _276
REMARK   96  A    between atoms: _279  and  _281
REMARK   97  A    between atoms: _281  and  _282
REMARK   98  A    between atoms: _281  and  _284
REMARK   99  A    between atoms: _284  and  _285
REMARK  100  A    between atoms: _288  and  _290
REMARK  101  A    between atoms: _290  and  _291
REMARK  102  A    between atoms: _293  and  _295
REMARK  103  A    between atoms: _295  and  _296
REMARK  104  A    between atoms: _295  and  _298
REMARK  105  A    between atoms: _298  and  _299
REMARK  106  A    between atoms: _301  and  _303
REMARK  107  A    between atoms: _303  and  _304
REMARK  108  A    between atoms: _303  and  _306
REMARK  109  A    between atoms: _306  and  _307
REMARK  110  A    between atoms: _310  and  _312
REMARK  111  A    between atoms: _312  and  _313
REMARK  112  A    between atoms: _312  and  _315
REMARK  113  A    between atoms: _315  and  _316
REMARK  114  A    between atoms: _319  and  _321
REMARK  115  A    between atoms: _321  and  _322
REMARK  116  A    between atoms: _321  and  _324
REMARK  117  A    between atoms: _324  and  _325
REMARK  118  A    between atoms: _329  and  _330
REMARK  119  A    between atoms: _336  and  _337
REMARK  120  A    between atoms: _342  and  _344
REMARK  121  A    between atoms: _344  and  _345
REMARK  122  A    between atoms: _344  and  _347
REMARK  123  A    between atoms: _347  and  _348
REMARK  124  A    between atoms: _351  and  _353
REMARK  125  A    between atoms: _353  and  _354
REMARK  126  A    between atoms: _353  and  _356
REMARK  127  A    between atoms: _356  and  _357
REMARK  128  A    between atoms: _360  and  _362
REMARK  129  A    between atoms: _362  and  _363
REMARK  130  A    between atoms: _362  and  _365
REMARK  131  A    between atoms: _368  and  _370
REMARK  132  A    between atoms: _370  and  _371
REMARK  133  A    between atoms: _370  and  _373
REMARK  134  A    between atoms: _373  and  _374
REMARK  135  A    between atoms: _384  and  _386
REMARK  136  A    between atoms: _386  and  _387
REMARK  137  A    between atoms: _386  and  _389
REMARK  138  A    between atoms: _389  and  _390
REMARK  139  A    between atoms: _395  and  _397
REMARK  140  A    between atoms: _397  and  _398
REMARK  141  A    between atoms: _397  and  _400
REMARK  142  A    between atoms: _400  and  _401
REMARK  143  A    between atoms: _401  and  _402
REMARK  144  A    between atoms: _402  and  _403
REMARK                            x       y       z     vdW  Elec       q    Type
REMARK                         _______ _______ _______ _____ _____    ______ ____
ROOT
ATOM      1  CA  VAL A   1      -3.854  12.264  19.407  0.00  0.00    +0.133 C 
ENDROOT
BRANCH   1   2
ATOM      2  CB  VAL A   1      -3.335  11.561  18.133  0.00  0.00    +0.023 C 
ATOM      3  CG2 VAL A   1      -4.495  10.830  17.470  0.00  0.00    +0.002 C 
ATOM      4  CG1 VAL A   1      -2.718  12.556  17.170  0.00  0.00    +0.002 C 
ENDBRANCH   1   2
BRANCH   1   5
ATOM      5  N   VAL A   1      -4.904  13.230  19.104  0.00  0.00    -0.239 NA
ATOM      6  H   VAL A   1      -5.002  13.615  18.143  0.00  0.00    +0.142 HD
ENDBRANCH   1   5
BRANCH   1   7
ATOM      7  C   VAL A   1      -2.701  12.847  20.219  0.00  0.00    +0.224 C 
ATOM      8  O   VAL A   1      -1.657  12.220  20.382  0.00  0.00    -0.287 OA
ENDBRANCH   1   7
TORSDOF 3
REMARK  Name = ../refined-set-2016/4xe1/4xe1_pocket.pdb
REMARK  144 active torsions:
REMARK  status: ('A' for Active; 'I' for Inactive)
REMARK    1  A    between atoms: _1  and  _3
REMARK    2  A    between atoms: _3  and  _4
REMARK    3  A    between atoms: _3  and  _6
REMARK    4  A    between atoms: _6  and  _7
REMARK    5  A    between atoms: _17  and  _19
REMARK    6  A    between atoms: _19  and  _20
REMARK    7  A    between atoms: _19  and  _22
REMARK    8  A    between atoms: _22  and  _23
REMARK    9  A    between atoms: _28  and  _29
REMARK   10  A    between atoms: _31  and  _33
REMARK   11  A    between atoms: _33  and  _34
REMARK   12  A    between atoms: _33  and  _36
REMARK   13  A    between atoms: _36  and  _37
REMARK   14  A    between atoms: _40  and  _41
REMARK   15  A    between atoms: _46  and  _48
REMARK   16  A    between atoms: _48  and  _49
REMARK   17  A    between atoms: _48  and  _51
REMARK   18  A    between atoms: _51  and  _52
REMARK   19  A    between atoms: _57  and  _59
REMARK   20  A    between atoms: _59  and  _60
REMARK   21  A    between atoms: _63  and  _65
REMARK   22  A    between atoms: _65  and  _66
REMARK   23  A    between atoms: _65  and  _68
REMARK   24  A    between atoms: _68  and  _69
REMARK   25  A    between atoms: _74  and  _76
REMARK   26  A    between atoms: _76  and  _77
REMARK   27  A    between atoms: _76  and  _79
REMARK   28  A    between atoms: _79  and  _80
REMARK   29  A    between atoms: _83  and  _85
REMARK   30  A    between atoms: _85  and  _86
REMARK   31  A    between atoms: _85  and  _88
REMARK   32  A    between atoms: _88  and  _89
REMARK   33  A    between atoms: _89  and  _90
REMARK   34  A    between atoms: _95  and  _97
REMARK   35  A    between atoms: _97  and  _98
REMARK   36  A    between atoms: _97  and  _100
REMARK   37  A    between atoms: _100  and  _101
REMARK   38  A    between atoms: _107  and  _109
REMARK   39  A    between atoms: _120  and  _123
REMARK   40  A    between atoms: _123  and  _124
REMARK   41  A    between atoms: _132  and  _133
REMARK   42  A    between atoms: _141  and  _143
REMARK   43  A    between atoms: _143  and  _144
REMARK   44  A    between atoms: _143  and  _146
REMARK   45  A    between atoms: _146  and  _147
REMARK   46  A    between atoms: _147  and  _148
REMARK   47  A    between atoms: _151  and  _153
REMARK   48  A    between atoms: _153  and  _154
REMARK   49  A    between atoms: _153  and  _156
REMARK   50  A    between atoms: _156  and  _157
REMARK   51  A    between atoms: _162  and  _164
REMARK   52  A    between atoms: _164  and  _165
REMARK   53  A    between atoms: _164  and  _167
REMARK   54  A    between atoms: _167  and  _168
REMARK   55  A    between atoms: _168  and  _169
REMARK   56  A    between atoms: _172  and  _174
REMARK   57  A    between atoms: _174  and  _175
REMARK   58  A    between atoms: _174  and  _177
REMARK   59  A    between atoms: _177  and  _178
REMARK   60  A    between atoms: _181  and  _183
REMARK   61  A    between atoms: _183  and  _184
REMARK   62  A    between atoms: _183  and  _186
REMARK   63  A    between atoms: _186  and  _187
REMARK   64  A    between atoms: _188  and  ZN_412
REMARK   65  A    between atoms: _192  and  _194
REMARK   66  A    between atoms: _194  and  _195
REMARK   67  A    between atoms: _194  and  _197
REMARK   68  A    between atoms: _197  and  _198
REMARK   69  A    between atoms: _201  and  _203
REMARK   70  A    between atoms: _203  and  _204
REMARK   71  A    between atoms: _203  and  _206
REMARK   72  A    between atoms: _209  and  _211
REMARK   73  A    between atoms: _211  and  _212
REMARK   74  A    between atoms: _211  and  _214
REMARK   75  A    between atoms: _214  and  _215
REMARK   76  A    between atoms: _220  and  _222
REMARK   77  A    between atoms: _222  and  _223
REMARK   78  A    between atoms: _222  and  _225
REMARK   79  A    between atoms: _225  and  _226
REMARK   80  A    between atoms: _236  and  _238
REMARK   81  A    between atoms: _238  and  _239
REMARK   82  A    between atoms: _238  and  _241
REMARK   83  A    between atoms: _241  and  _242
REMARK   84  A    between atoms: _248  and  _250
REMARK   85  A    between atoms: _250  and  _251
REMARK   86  A    between atoms: _250  and  _253
REMARK   87  A    between atoms: _256  and  _258
REMARK   88  A    between atoms: _258  and  _259
REMARK   89  A    between atoms: _258  and  _261
REMARK   90  A    between atoms: _261  and  _262
REMARK   91  A    between atoms: _265  and  _267
REMARK   92  A    between atoms: _267  and  _268
REMARK   93  A    between atoms: _271  and  _273
REMARK   94  A    between atoms: _273  and  _274
REMARK   95  A    between atoms: _273  and  _276
REMARK   96  A    between atoms: _279  and  _281
REMARK   97  A    between atoms: _281  and  _282
REMARK   98  A    between atoms: _281  and  _284
REMARK   99  A    between atoms: _284  and  _285
REMARK  100  A    between atoms: _288  and  _290
REMARK  101  A    between atoms: _290  and  _291
REMARK  102  A    between atoms: _293  and  _295
REMARK  103  A    between atoms: _295  and  _296
REMARK  104  A    between atoms: _295  and  _298
REMARK  105  A    between atoms: _298  and  _299
REMARK  106  A    between atoms: _301  and  _303
REMARK  107  A    between atoms: _303  and  _304
REMARK  108  A    between atoms: _303  and  _306
REMARK  109  A    between atoms: _306  and  _307
REMARK  110  A    between atoms: _310  and  _312
REMARK  111  A    between atoms: _312  and  _313
REMARK  112  A    between atoms: _312  and  _315
REMARK  113  A    between atoms: _315  and  _316
REMARK  114  A    between atoms: _319  and  _321
REMARK  115  A    between atoms: _321  and  _322
REMARK  116  A    between atoms: _321  and  _324
REMARK  117  A    between atoms: _324  and  _325
REMARK  118  A    between atoms: _329  and  _330
REMARK  119  A    between atoms: _336  and  _337
REMARK  120  A    between atoms: _342  and  _344
REMARK  121  A    between atoms: _344  and  _345
REMARK  122  A    between atoms: _344  and  _347
REMARK  123  A    between atoms: _347  and  _348
REMARK  124  A    between atoms: _351  and  _353
REMARK  125  A    between atoms: _353  and  _354
REMARK  126  A    between atoms: _353  and  _356
REMARK  127  A    between atoms: _356  and  _357
REMARK  128  A    between atoms: _360  and  _362
REMARK  129  A    between atoms: _362  and  _363
REMARK  130  A    between atoms: _362  and  _365
REMARK  131  A    between atoms: _368  and  _370
REMARK  132  A    between atoms: _370  and  _371
REMARK  133  A    between atoms: _370  and  _373
REMARK  134  A    between atoms: _373  and  _374
REMARK  135  A    between atoms: _384  and  _386
REMARK  136  A    between atoms: _386  and  _387
REMARK  137  A    between atoms: _386  and  _389
REMARK  138  A    between atoms: _389  and  _390
REMARK  139  A    between atoms: _395  and  _397
REMARK  140  A    between atoms: _397  and  _398
REMARK  141  A    between atoms: _397  and  _400
REMARK  142  A    between atoms: _400  and  _401
REMARK  143  A    between atoms: _401  and  _402
REMARK  144  A    between atoms: _402  and  _403
REMARK                            x       y       z     vdW  Elec       q    Type
REMARK                         _______ _______ _______ _____ _____    ______ ____
ROOT
ATOM      1  C   ALA A   2     -12.139   4.981  20.654  0.00  0.00    +0.241 C 
ATOM      2  N   VAL A   3     -11.725   3.748  20.906  0.00  0.00    -0.297 N 
ATOM      3  H   VAL A   3     -11.328   3.512  21.838  0.00  0.00    +0.150 HD
ATOM      4  O   ALA A   2     -12.535   5.339  19.534  0.00  0.00    -0.273 OA
ENDROOT
BRANCH   1   5
ATOM      5  CA  ALA A   2     -12.029   5.980  21.800  0.00  0.00    +0.149 C 
ATOM      6  CB  ALA A   2     -13.416   6.481  22.222  0.00  0.00    +0.031 C 
BRANCH   5   9
ATOM      7  C   LEU A   1     -10.273   7.673  21.938  0.00  0.00    +0.238 C 
ATOM      8  O   LEU A   1     -10.042   7.430  23.123  0.00  0.00    -0.274 OA
ATOM      9  N   ALA A   2     -11.221   7.061  21.237  0.00  0.00    -0.297 N 
ATOM     10  H   ALA A   2     -11.394   7.360  20.256  0.00  0.00    +0.150 HD
BRANCH   7  11
ATOM     11  CA  LEU A   1      -9.465   8.706  21.171  0.00  0.00    +0.145 C 
BRANCH  11  12
ATOM     12  N   LEU A   1      -8.800   9.700  22.013  0.00  0.00    -0.238 NA
ATOM     13  H   LEU A   1      -8.206   9.389  22.808  0.00  0.00    +0.142 HD
ENDBRANCH  11  12
BRANCH  11  14
ATOM     14  CB  LEU A   1      -8.409   7.949  20.359  0.00  0.00    +0.026 C 
BRANCH  14  15
ATOM     15  CG  LEU A   1      -7.475   8.710  19.415  0.00  0.00    +0.002 C 
ATOM     16  CD2 LEU A   1      -6.437   7.743  18.874  0.00  0.00    +0.000 C 
ATOM     17  CD1 LEU A   1      -8.271   9.342  18.287  0.00  0.00    +0.000 C 
ENDBRANCH  14  15
ENDBRANCH  11  14
ENDBRANCH   7  11
ENDBRANCH   5   9
ENDBRANCH   1   5
BRANCH   2  18
ATOM     18  CA  VAL A   3     -11.826   2.723  19.877  0.00  0.00    +0.149 C 
BRANCH  18  19
ATOM     19  C   VAL A   3     -12.786   1.665  20.379  0.00  0.00    +0.241 C 
ATOM     20  O   VAL A   3     -12.649   1.171  21.505  0.00  0.00    -0.273 OA
ATOM     21  N   LEU A   4     -13.772   1.352  19.548  0.00  0.00    -0.298 N 
ATOM     22  H   LEU A   4     -13.828   1.845  18.634  0.00  0.00    +0.150 HD
BRANCH  21  23
ATOM     23  CA  LEU A   4     -14.774   0.352  19.860  0.00  0.00    +0.137 C 
BRANCH  23  24
ATOM     24  C   LEU A   4     -14.290  -0.928  19.189  0.00  0.00    +0.227 C 
ATOM     25  O   LEU A   4     -14.187  -0.994  17.960  0.00  0.00    -0.286 OA
ENDBRANCH  23  24
BRANCH  23  26
ATOM     26  CB  LEU A   4     -16.131   0.792  19.289  0.00  0.00    +0.028 C 
BRANCH  26  27
ATOM     27  CG  LEU A   4     -17.272  -0.215  19.431  0.00  0.00    +0.002 C 
ATOM     28  CD2 LEU A   4     -17.462  -0.536  20.908  0.00  0.00    +0.000 C 
ATOM     29  CD1 LEU A   4     -18.566   0.356  18.809  0.00  0.00    +0.000 C 
ENDBRANCH  26  27
ENDBRANCH  23  26
ENDBRANCH  21  23
ENDBRANCH  18  19
BRANCH  18  30
ATOM     30  CB  VAL A   3     -10.473   2.066  19.569  0.00  0.00    +0.027 C 
ATOM     31  CG2 VAL A   3      -9.449   3.140  19.186  0.00  0.00    +0.002 C 
ATOM     32  CG1 VAL A   3     -10.635   1.066  18.399  0.00  0.00    +0.002 C 
ENDBRANCH  18  30
ENDBRANCH   2  18
TORSDOF 13
REMARK  Name = ../refined-set-2016/4xe1/4xe1_pocket.pdb
REMARK  144 active torsions:
REMARK  status: ('A' for Active; 'I' for Inactive)
REMARK    1  A    between atoms: _1  and  _3
REMARK    2  A    between atoms: _3  and  _4
REMARK    3  A    between atoms: _3  and  _6
REMARK    4  A    between atoms: _6  and  _7
REMARK    5  A    between atoms: _17  and  _19
REMARK    6  A    between atoms: _19  and  _20
REMARK    7  A    between atoms: _19  and  _22
REMARK    8  A    between atoms: _22  and  _23
REMARK    9  A    between atoms: _28  and  _29
REMARK   10  A    between atoms: _31  and  _33
REMARK   11  A    between atoms: _33  and  _34
REMARK   12  A    between atoms: _33  and  _36
REMARK   13  A    between atoms: _36  and  _37
REMARK   14  A    between atoms: _40  and  _41
REMARK   15  A    between atoms: _46  and  _48
REMARK   16  A    between atoms: _48  and  _49
REMARK   17  A    between atoms: _48  and  _51
REMARK   18  A    between atoms: _51  and  _52
REMARK   19  A    between atoms: _57  and  _59
REMARK   20  A    between atoms: _59  and  _60
REMARK   21  A    between atoms: _63  and  _65
REMARK   22  A    between atoms: _65  and  _66
REMARK   23  A    between atoms: _65  and  _68
REMARK   24  A    between atoms: _68  and  _69
REMARK   25  A    between atoms: _74  and  _76
REMARK   26  A    between atoms: _76  and  _77
REMARK   27  A    between atoms: _76  and  _79
REMARK   28  A    between atoms: _79  and  _80
REMARK   29  A    between atoms: _83  and  _85
REMARK   30  A    between atoms: _85  and  _86
REMARK   31  A    between atoms: _85  and  _88
REMARK   32  A    between atoms: _88  and  _89
REMARK   33  A    between atoms: _89  and  _90
REMARK   34  A    between atoms: _95  and  _97
REMARK   35  A    between atoms: _97  and  _98
REMARK   36  A    between atoms: _97  and  _100
REMARK   37  A    between atoms: _100  and  _101
REMARK   38  A    between atoms: _107  and  _109
REMARK   39  A    between atoms: _120  and  _123
REMARK   40  A    between atoms: _123  and  _124
REMARK   41  A    between atoms: _132  and  _133
REMARK   42  A    between atoms: _141  and  _143
REMARK   43  A    between atoms: _143  and  _144
REMARK   44  A    between atoms: _143  and  _146
REMARK   45  A    between atoms: _146  and  _147
REMARK   46  A    between atoms: _147  and  _148
REMARK   47  A    between atoms: _151  and  _153
REMARK   48  A    between atoms: _153  and  _154
REMARK   49  A    between atoms: _153  and  _156
REMARK   50  A    between atoms: _156  and  _157
REMARK   51  A    between atoms: _162  and  _164
REMARK   52  A    between atoms: _164  and  _165
REMARK   53  A    between atoms: _164  and  _167
REMARK   54  A    between atoms: _167  and  _168
REMARK   55  A    between atoms: _168  and  _169
REMARK   56  A    between atoms: _172  and  _174
REMARK   57  A    between atoms: _174  and  _175
REMARK   58  A    between atoms: _174  and  _177
REMARK   59  A    between atoms: _177  and  _178
REMARK   60  A    between atoms: _181  and  _183
REMARK   61  A    between atoms: _183  and  _184
REMARK   62  A    between atoms: _183  and  _186
REMARK   63  A    between atoms: _186  and  _187
REMARK   64  A    between atoms: _188  and  ZN_412
REMARK   65  A    between atoms: _192  and  _194
REMARK   66  A    between atoms: _194  and  _195
REMARK   67  A    between atoms: _194  and  _197
REMARK   68  A    between atoms: _197  and  _198
REMARK   69  A    between atoms: _201  and  _203
REMARK   70  A    between atoms: _203  and  _204
REMARK   71  A    between atoms: _203  and  _206
REMARK   72  A    between atoms: _209  and  _211
REMARK   73  A    between atoms: _211  and  _212
REMARK   74  A    between atoms: _211  and  _214
REMARK   75  A    between atoms: _214  and  _215
REMARK   76  A    between atoms: _220  and  _222
REMARK   77  A    between atoms: _222  and  _223
REMARK   78  A    between atoms: _222  and  _225
REMARK   79  A    between atoms: _225  and  _226
REMARK   80  A    between atoms: _236  and  _238
REMARK   81  A    between atoms: _238  and  _239
REMARK   82  A    between atoms: _238  and  _241
REMARK   83  A    between atoms: _241  and  _242
REMARK   84  A    between atoms: _248  and  _250
REMARK   85  A    between atoms: _250  and  _251
REMARK   86  A    between atoms: _250  and  _253
REMARK   87  A    between atoms: _256  and  _258
REMARK   88  A    between atoms: _258  and  _259
REMARK   89  A    between atoms: _258  and  _261
REMARK   90  A    between atoms: _261  and  _262
REMARK   91  A    between atoms: _265  and  _267
REMARK   92  A    between atoms: _267  and  _268
REMARK   93  A    between atoms: _271  and  _273
REMARK   94  A    between atoms: _273  and  _274
REMARK   95  A    between atoms: _273  and  _276
REMARK   96  A    between atoms: _279  and  _281
REMARK   97  A    between atoms: _281  and  _282
REMARK   98  A    between atoms: _281  and  _284
REMARK   99  A    between atoms: _284  and  _285
REMARK  100  A    between atoms: _288  and  _290
REMARK  101  A    between atoms: _290  and  _291
REMARK  102  A    between atoms: _293  and  _295
REMARK  103  A    between atoms: _295  and  _296
REMARK  104  A    between atoms: _295  and  _298
REMARK  105  A    between atoms: _298  and  _299
REMARK  106  A    between atoms: _301  and  _303
REMARK  107  A    between atoms: _303  and  _304
REMARK  108  A    between atoms: _303  and  _306
REMARK  109  A    between atoms: _306  and  _307
REMARK  110  A    between atoms: _310  and  _312
REMARK  111  A    between atoms: _312  and  _313
REMARK  112  A    between atoms: _312  and  _315
REMARK  113  A    between atoms: _315  and  _316
REMARK  114  A    between atoms: _319  and  _321
REMARK  115  A    between atoms: _321  and  _322
REMARK  116  A    between atoms: _321  and  _324
REMARK  117  A    between atoms: _324  and  _325
REMARK  118  A    between atoms: _329  and  _330
REMARK  119  A    between atoms: _336  and  _337
REMARK  120  A    between atoms: _342  and  _344
REMARK  121  A    between atoms: _344  and  _345
REMARK  122  A    between atoms: _344  and  _347
REMARK  123  A    between atoms: _347  and  _348
REMARK  124  A    between atoms: _351  and  _353
REMARK  125  A    between atoms: _353  and  _354
REMARK  126  A    between atoms: _353  and  _356
REMARK  127  A    between atoms: _356  and  _357
REMARK  128  A    between atoms: _360  and  _362
REMARK  129  A    between atoms: _362  and  _363
REMARK  130  A    between atoms: _362  and  _365
REMARK  131  A    between atoms: _368  and  _370
REMARK  132  A    between atoms: _370  and  _371
REMARK  133  A    between atoms: _370  and  _373
REMARK  134  A    between atoms: _373  and  _374
REMARK  135  A    between atoms: _384  and  _386
REMARK  136  A    between atoms: _386  and  _387
REMARK  137  A    between atoms: _386  and  _389
REMARK  138  A    between atoms: _389  and  _390
REMARK  139  A    between atoms: _395  and  _397
REMARK  140  A    between atoms: _397  and  _398
REMARK  141  A    between atoms: _397  and  _400
REMARK  142  A    between atoms: _400  and  _401
REMARK  143  A    between atoms: _401  and  _402
REMARK  144  A    between atoms: _402  and  _403
REMARK                            x       y       z     vdW  Elec       q    Type
REMARK                         _______ _______ _______ _____ _____    ______ ____
ROOT
ATOM      1  CA  THR A   5       0.389  -0.254  16.072  0.00  0.00    +0.176 C 
ENDROOT
BRANCH   1   2
ATOM      2  C   THR A   5       1.172   1.024  16.255  0.00  0.00    +0.246 C 
ATOM      3  O   THR A   5       0.706   1.970  16.904  0.00  0.00    -0.273 OA
ATOM      4  N   PRO A   6       2.388   1.069  15.709  0.00  0.00    -0.272 N 
ATOM      5  CA  PRO A   6       3.163   2.303  15.840  0.00  0.00    +0.152 C 
ATOM      6  CB  PRO A   6       4.372   2.026  14.962  0.00  0.00    +0.031 C 
ATOM      7  CG  PRO A   6       4.648   0.577  15.260  0.00  0.00    +0.024 C 
ATOM      8  CD  PRO A   6       3.227  -0.045  15.216  0.00  0.00    +0.094 C 
BRANCH   5   9
ATOM      9  C   PRO A   6       2.250   3.405  15.270  0.00  0.00    +0.244 C 
ATOM     10  N   PRO A   7       2.312   4.632  15.811  0.00  0.00    -0.272 N 
ATOM     11  CA  PRO A   7       3.148   5.143  16.901  0.00  0.00    +0.152 C 
ATOM     12  CB  PRO A   7       3.089   6.654  16.693  0.00  0.00    +0.031 C 
ATOM     13  CG  PRO A   7       1.694   6.857  16.217  0.00  0.00    +0.024 C 
ATOM     14  CD  PRO A   7       1.505   5.722  15.223  0.00  0.00    +0.094 C 
ATOM     15  O   PRO A   6       1.527   3.167  14.297  0.00  0.00    -0.273 OA
BRANCH  11  16
ATOM     16  C   PRO A   7       2.801   4.748  18.334  0.00  0.00    +0.241 C 
ATOM     17  O   PRO A   7       3.381   5.300  19.268  0.00  0.00    -0.273 OA
ATOM     18  N   LEU A   8       1.850   3.826  18.505  0.00  0.00    -0.297 N 
ATOM     19  H   LEU A   8       1.353   3.460  17.668  0.00  0.00    +0.150 HD
BRANCH  18  20
ATOM     20  CA  LEU A   8       1.480   3.310  19.828  0.00  0.00    +0.149 C 
BRANCH  20  21
ATOM     21  C   LEU A   8       1.122   4.359  20.883  0.00  0.00    +0.241 C 
ATOM     22  O   LEU A   8       1.346   4.132  22.084  0.00  0.00    -0.273 OA
ATOM     23  N   LEU A   9       0.547   5.476  20.439  0.00  0.00    -0.298 N 
ATOM     24  H   LEU A   9       0.348   5.567  19.422  0.00  0.00    +0.150 HD
BRANCH  23  25
ATOM     25  CA  LEU A   9       0.186   6.578  21.330  0.00  0.00    +0.137 C 
BRANCH  25  26
ATOM     26  C   LEU A   9      -0.817   6.175  22.414  0.00  0.00    +0.227 C 
ATOM     27  O   LEU A   9      -1.790   5.474  22.139  0.00  0.00    -0.286 OA
ENDBRANCH  25  26
BRANCH  25  28
ATOM     28  CB  LEU A   9      -0.379   7.744  20.506  0.00  0.00    +0.028 C 
BRANCH  28  29
ATOM     29  CG  LEU A   9       0.527   8.210  19.362  0.00  0.00    +0.002 C 
ATOM     30  CD2 LEU A   9       1.875   8.635  19.913  0.00  0.00    +0.000 C 
ATOM     31  CD1 LEU A   9      -0.137   9.355  18.609  0.00  0.00    +0.000 C 
ENDBRANCH  28  29
ENDBRANCH  25  28
ENDBRANCH  23  25
ENDBRANCH  20  21
BRANCH  20  32
ATOM     32  CB  LEU A   8       2.625   2.452  20.365  0.00  0.00    +0.029 C 
BRANCH  32  33
ATOM     33  CG  LEU A   8       3.076   1.311  19.448  0.00  0.00    +0.002 C 
ATOM     34  CD2 LEU A   8       4.437   0.786  19.900  0.00  0.00    +0.000 C 
ATOM     35  CD1 LEU A   8       2.019   0.197  19.477  0.00  0.00    +0.000 C 
ENDBRANCH  32  33
ENDBRANCH  20  32
ENDBRANCH  18  20
ENDBRANCH  11  16
ENDBRANCH   5   9
ENDBRANCH   1   2
BRANCH   1  38
ATOM     36  C   THR A   4      -0.950  -1.290  17.818  0.00  0.00    +0.243 C 
ATOM     37  O   THR A   4      -0.400  -2.380  17.632  0.00  0.00    -0.273 OA
ATOM     38  N   THR A   5      -0.698  -0.222  17.064  0.00  0.00    -0.295 N 
ATOM     39  H   THR A   5      -1.271   0.638  17.176  0.00  0.00    +0.150 HD
BRANCH  36  40
ATOM     40  CA  THR A   4      -2.025  -1.142  18.902  0.00  0.00    +0.176 C 
BRANCH  40  43
ATOM     41  C   LEU A   3      -2.231   1.168  19.643  0.00  0.00    +0.241 C 
ATOM     42  O   LEU A   3      -1.220   1.070  20.348  0.00  0.00    -0.273 OA
ATOM     43  N   THR A   4      -2.689   0.164  18.902  0.00  0.00    -0.295 N 
ATOM     44  H   THR A   4      -3.533   0.308  18.312  0.00  0.00    +0.150 HD
BRANCH  41  45
ATOM     45  CA  LEU A   3      -2.993   2.487  19.594  0.00  0.00    +0.149 C 
BRANCH  45  48
ATOM     46  C   SER A   2      -3.455   2.387  21.971  0.00  0.00    +0.243 C 
ATOM     47  O   SER A   2      -4.304   1.505  21.826  0.00  0.00    -0.273 OA
ATOM     48  N   LEU A   3      -2.798   2.952  20.959  0.00  0.00    -0.297 N 
ATOM     49  H   LEU A   3      -2.139   3.734  21.147  0.00  0.00    +0.150 HD
BRANCH  46  50
ATOM     50  CA  SER A   2      -3.057   2.884  23.343  0.00  0.00    +0.178 C 
BRANCH  50  53
ATOM     51  C   GLY A   1      -4.243   2.899  25.480  0.00  0.00    +0.240 C 
ATOM     52  O   GLY A   1      -4.208   4.135  25.556  0.00  0.00    -0.274 OA
ATOM     53  N   SER A   2      -3.766   2.218  24.438  0.00  0.00    -0.295 N 
ATOM     54  H   SER A   2      -3.901   1.187  24.402  0.00  0.00    +0.150 HD
BRANCH  51  55
ATOM     55  CA  GLY A   1      -4.877   2.063  26.576  0.00  0.00    +0.169 C 
BRANCH  55  56
ATOM     56  N   GLY A   1      -5.975   2.699  27.284  0.00  0.00    -0.236 NA
ATOM     57  H   GLY A   1      -6.598   3.368  26.787  0.00  0.00    +0.142 HD
ENDBRANCH  55  56
ENDBRANCH  51  55
ENDBRANCH  50  53
BRANCH  50  58
ATOM     58  CB  SER A   2      -1.556   2.597  23.470  0.00  0.00    +0.166 C 
BRANCH  58  59
ATOM     59  OG  SER A   2      -1.321   1.206  23.186  0.00  0.00    -0.380 OA
ATOM     60  H   SER A   2      -1.624   1.002  22.266  0.00  0.00    +0.211 HD
ENDBRANCH  58  59
ENDBRANCH  50  58
ENDBRANCH  46  50
ENDBRANCH  45  48
BRANCH  45  61
ATOM     61  CB  LEU A   3      -2.299   3.418  18.595  0.00  0.00    +0.029 C 
BRANCH  61  62
ATOM     62  CG  LEU A   3      -2.783   4.863  18.564  0.00  0.00    +0.002 C 
ATOM     63  CD2 LEU A   3      -4.252   4.888  18.176  0.00  0.00    +0.000 C 
ATOM     64  CD1 LEU A   3      -1.918   5.678  17.598  0.00  0.00    +0.000 C 
ENDBRANCH  61  62
ENDBRANCH  45  61
ENDBRANCH  41  45
ENDBRANCH  40  43
BRANCH  40  65
ATOM     65  CB  THR A   4      -3.032  -2.278  18.724  0.00  0.00    +0.137 C 
ATOM     66  CG2 THR A   4      -4.100  -2.215  19.818  0.00  0.00    +0.034 C 
BRANCH  65  67
ATOM     67  OG1 THR A   4      -3.630  -2.173  17.425  0.00  0.00    -0.382 OA
ATOM     68  HG1 THR A   4      -4.284  -2.907  17.304  0.00  0.00    +0.210 HD
ENDBRANCH  65  67
ENDBRANCH  40  65
ENDBRANCH  36  40
ENDBRANCH   1  38
BRANCH   1  69
ATOM     69  CB  THR A   5      -0.079  -0.235  14.580  0.00  0.00    +0.137 C 
ATOM     70  CG2 THR A   5      -1.195  -1.253  14.339  0.00  0.00    +0.034 C 
BRANCH  69  71
ATOM     71  OG1 THR A   5      -0.537   1.079  14.233  0.00  0.00    -0.382 OA
ATOM     72  HG1 THR A   5       0.201   1.727  14.354  0.00  0.00    +0.210 HD
ENDBRANCH  69  71
ENDBRANCH   1  69
TORSDOF 28
REMARK  Name = ../refined-set-2016/4xe1/4xe1_pocket.pdb
REMARK  144 active torsions:
REMARK  status: ('A' for Active; 'I' for Inactive)
REMARK    1  A    between atoms: _1  and  _3
REMARK    2  A    between atoms: _3  and  _4
REMARK    3  A    between atoms: _3  and  _6
REMARK    4  A    between atoms: _6  and  _7
REMARK    5  A    between atoms: _17  and  _19
REMARK    6  A    between atoms: _19  and  _20
REMARK    7  A    between atoms: _19  and  _22
REMARK    8  A    between atoms: _22  and  _23
REMARK    9  A    between atoms: _28  and  _29
REMARK   10  A    between atoms: _31  and  _33
REMARK   11  A    between atoms: _33  and  _34
REMARK   12  A    between atoms: _33  and  _36
REMARK   13  A    between atoms: _36  and  _37
REMARK   14  A    between atoms: _40  and  _41
REMARK   15  A    between atoms: _46  and  _48
REMARK   16  A    between atoms: _48  and  _49
REMARK   17  A    between atoms: _48  and  _51
REMARK   18  A    between atoms: _51  and  _52
REMARK   19  A    between atoms: _57  and  _59
REMARK   20  A    between atoms: _59  and  _60
REMARK   21  A    between atoms: _63  and  _65
REMARK   22  A    between atoms: _65  and  _66
REMARK   23  A    between atoms: _65  and  _68
REMARK   24  A    between atoms: _68  and  _69
REMARK   25  A    between atoms: _74  and  _76
REMARK   26  A    between atoms: _76  and  _77
REMARK   27  A    between atoms: _76  and  _79
REMARK   28  A    between atoms: _79  and  _80
REMARK   29  A    between atoms: _83  and  _85
REMARK   30  A    between atoms: _85  and  _86
REMARK   31  A    between atoms: _85  and  _88
REMARK   32  A    between atoms: _88  and  _89
REMARK   33  A    between atoms: _89  and  _90
REMARK   34  A    between atoms: _95  and  _97
REMARK   35  A    between atoms: _97  and  _98
REMARK   36  A    between atoms: _97  and  _100
REMARK   37  A    between atoms: _100  and  _101
REMARK   38  A    between atoms: _107  and  _109
REMARK   39  A    between atoms: _120  and  _123
REMARK   40  A    between atoms: _123  and  _124
REMARK   41  A    between atoms: _132  and  _133
REMARK   42  A    between atoms: _141  and  _143
REMARK   43  A    between atoms: _143  and  _144
REMARK   44  A    between atoms: _143  and  _146
REMARK   45  A    between atoms: _146  and  _147
REMARK   46  A    between atoms: _147  and  _148
REMARK   47  A    between atoms: _151  and  _153
REMARK   48  A    between atoms: _153  and  _154
REMARK   49  A    between atoms: _153  and  _156
REMARK   50  A    between atoms: _156  and  _157
REMARK   51  A    between atoms: _162  and  _164
REMARK   52  A    between atoms: _164  and  _165
REMARK   53  A    between atoms: _164  and  _167
REMARK   54  A    between atoms: _167  and  _168
REMARK   55  A    between atoms: _168  and  _169
REMARK   56  A    between atoms: _172  and  _174
REMARK   57  A    between atoms: _174  and  _175
REMARK   58  A    between atoms: _174  and  _177
REMARK   59  A    between atoms: _177  and  _178
REMARK   60  A    between atoms: _181  and  _183
REMARK   61  A    between atoms: _183  and  _184
REMARK   62  A    between atoms: _183  and  _186
REMARK   63  A    between atoms: _186  and  _187
REMARK   64  A    between atoms: _188  and  ZN_412
REMARK   65  A    between atoms: _192  and  _194
REMARK   66  A    between atoms: _194  and  _195
REMARK   67  A    between atoms: _194  and  _197
REMARK   68  A    between atoms: _197  and  _198
REMARK   69  A    between atoms: _201  and  _203
REMARK   70  A    between atoms: _203  and  _204
REMARK   71  A    between atoms: _203  and  _206
REMARK   72  A    between atoms: _209  and  _211
REMARK   73  A    between atoms: _211  and  _212
REMARK   74  A    between atoms: _211  and  _214
REMARK   75  A    between atoms: _214  and  _215
REMARK   76  A    between atoms: _220  and  _222
REMARK   77  A    between atoms: _222  and  _223
REMARK   78  A    between atoms: _222  and  _225
REMARK   79  A    between atoms: _225  and  _226
REMARK   80  A    between atoms: _236  and  _238
REMARK   81  A    between atoms: _238  and  _239
REMARK   82  A    between atoms: _238  and  _241
REMARK   83  A    between atoms: _241  and  _242
REMARK   84  A    between atoms: _248  and  _250
REMARK   85  A    between atoms: _250  and  _251
REMARK   86  A    between atoms: _250  and  _253
REMARK   87  A    between atoms: _256  and  _258
REMARK   88  A    between atoms: _258  and  _259
REMARK   89  A    between atoms: _258  and  _261
REMARK   90  A    between atoms: _261  and  _262
REMARK   91  A    between atoms: _265  and  _267
REMARK   92  A    between atoms: _267  and  _268
REMARK   93  A    between atoms: _271  and  _273
REMARK   94  A    between atoms: _273  and  _274
REMARK   95  A    between atoms: _273  and  _276
REMARK   96  A    between atoms: _279  and  _281
REMARK   97  A    between atoms: _281  and  _282
REMARK   98  A    between atoms: _281  and  _284
REMARK   99  A    between atoms: _284  and  _285
REMARK  100  A    between atoms: _288  and  _290
REMARK  101  A    between atoms: _290  and  _291
REMARK  102  A    between atoms: _293  and  _295
REMARK  103  A    between atoms: _295  and  _296
REMARK  104  A    between atoms: _295  and  _298
REMARK  105  A    between atoms: _298  and  _299
REMARK  106  A    between atoms: _301  and  _303
REMARK  107  A    between atoms: _303  and  _304
REMARK  108  A    between atoms: _303  and  _306
REMARK  109  A    between atoms: _306  and  _307
REMARK  110  A    between atoms: _310  and  _312
REMARK  111  A    between atoms: _312  and  _313
REMARK  112  A    between atoms: _312  and  _315
REMARK  113  A    between atoms: _315  and  _316
REMARK  114  A    between atoms: _319  and  _321
REMARK  115  A    between atoms: _321  and  _322
REMARK  116  A    between atoms: _321  and  _324
REMARK  117  A    between atoms: _324  and  _325
REMARK  118  A    between atoms: _329  and  _330
REMARK  119  A    between atoms: _336  and  _337
REMARK  120  A    between atoms: _342  and  _344
REMARK  121  A    between atoms: _344  and  _345
REMARK  122  A    between atoms: _344  and  _347
REMARK  123  A    between atoms: _347  and  _348
REMARK  124  A    between atoms: _351  and  _353
REMARK  125  A    between atoms: _353  and  _354
REMARK  126  A    between atoms: _353  and  _356
REMARK  127  A    between atoms: _356  and  _357
REMARK  128  A    between atoms: _360  and  _362
REMARK  129  A    between atoms: _362  and  _363
REMARK  130  A    between atoms: _362  and  _365
REMARK  131  A    between atoms: _368  and  _370
REMARK  132  A    between atoms: _370  and  _371
REMARK  133  A    between atoms: _370  and  _373
REMARK  134  A    between atoms: _373  and  _374
REMARK  135  A    between atoms: _384  and  _386
REMARK  136  A    between atoms: _386  and  _387
REMARK  137  A    between atoms: _386  and  _389
REMARK  138  A    between atoms: _389  and  _390
REMARK  139  A    between atoms: _395  and  _397
REMARK  140  A    between atoms: _397  and  _398
REMARK  141  A    between atoms: _397  and  _400
REMARK  142  A    between atoms: _400  and  _401
REMARK  143  A    between atoms: _401  and  _402
REMARK  144  A    between atoms: _402  and  _403
REMARK                            x       y       z     vdW  Elec       q    Type
REMARK                         _______ _______ _______ _____ _____    ______ ____
ROOT
ATOM      1  CA  VAL A   1      -7.213   5.624  23.788  0.00  0.00    +0.133 C 
ENDROOT
BRANCH   1   2
ATOM      2  CB  VAL A   1      -6.947   4.361  22.917  0.00  0.00    +0.023 C 
ATOM      3  CG2 VAL A   1      -8.295   3.689  22.552  0.00  0.00    +0.002 C 
ATOM      4  CG1 VAL A   1      -6.156   4.722  21.651  0.00  0.00    +0.002 C 
ENDBRANCH   1   2
BRANCH   1   5
ATOM      5  N   VAL A   1      -5.980   6.367  24.015  0.00  0.00    -0.239 NA
ATOM      6  H   VAL A   1      -5.118   5.855  24.293  0.00  0.00    +0.142 HD
ENDBRANCH   1   5
BRANCH   1   7
ATOM      7  C   VAL A   1      -8.016   5.105  24.959  0.00  0.00    +0.224 C 
ATOM      8  O   VAL A   1      -7.472   4.492  25.871  0.00  0.00    -0.287 OA
ENDBRANCH   1   7
TORSDOF 3
REMARK  Name = ../refined-set-2016/4xe1/4xe1_pocket.pdb
REMARK  144 active torsions:
REMARK  status: ('A' for Active; 'I' for Inactive)
REMARK    1  A    between atoms: _1  and  _3
REMARK    2  A    between atoms: _3  and  _4
REMARK    3  A    between atoms: _3  and  _6
REMARK    4  A    between atoms: _6  and  _7
REMARK    5  A    between atoms: _17  and  _19
REMARK    6  A    between atoms: _19  and  _20
REMARK    7  A    between atoms: _19  and  _22
REMARK    8  A    between atoms: _22  and  _23
REMARK    9  A    between atoms: _28  and  _29
REMARK   10  A    between atoms: _31  and  _33
REMARK   11  A    between atoms: _33  and  _34
REMARK   12  A    between atoms: _33  and  _36
REMARK   13  A    between atoms: _36  and  _37
REMARK   14  A    between atoms: _40  and  _41
REMARK   15  A    between atoms: _46  and  _48
REMARK   16  A    between atoms: _48  and  _49
REMARK   17  A    between atoms: _48  and  _51
REMARK   18  A    between atoms: _51  and  _52
REMARK   19  A    between atoms: _57  and  _59
REMARK   20  A    between atoms: _59  and  _60
REMARK   21  A    between atoms: _63  and  _65
REMARK   22  A    between atoms: _65  and  _66
REMARK   23  A    between atoms: _65  and  _68
REMARK   24  A    between atoms: _68  and  _69
REMARK   25  A    between atoms: _74  and  _76
REMARK   26  A    between atoms: _76  and  _77
REMARK   27  A    between atoms: _76  and  _79
REMARK   28  A    between atoms: _79  and  _80
REMARK   29  A    between atoms: _83  and  _85
REMARK   30  A    between atoms: _85  and  _86
REMARK   31  A    between atoms: _85  and  _88
REMARK   32  A    between atoms: _88  and  _89
REMARK   33  A    between atoms: _89  and  _90
REMARK   34  A    between atoms: _95  and  _97
REMARK   35  A    between atoms: _97  and  _98
REMARK   36  A    between atoms: _97  and  _100
REMARK   37  A    between atoms: _100  and  _101
REMARK   38  A    between atoms: _107  and  _109
REMARK   39  A    between atoms: _120  and  _123
REMARK   40  A    between atoms: _123  and  _124
REMARK   41  A    between atoms: _132  and  _133
REMARK   42  A    between atoms: _141  and  _143
REMARK   43  A    between atoms: _143  and  _144
REMARK   44  A    between atoms: _143  and  _146
REMARK   45  A    between atoms: _146  and  _147
REMARK   46  A    between atoms: _147  and  _148
REMARK   47  A    between atoms: _151  and  _153
REMARK   48  A    between atoms: _153  and  _154
REMARK   49  A    between atoms: _153  and  _156
REMARK   50  A    between atoms: _156  and  _157
REMARK   51  A    between atoms: _162  and  _164
REMARK   52  A    between atoms: _164  and  _165
REMARK   53  A    between atoms: _164  and  _167
REMARK   54  A    between atoms: _167  and  _168
REMARK   55  A    between atoms: _168  and  _169
REMARK   56  A    between atoms: _172  and  _174
REMARK   57  A    between atoms: _174  and  _175
REMARK   58  A    between atoms: _174  and  _177
REMARK   59  A    between atoms: _177  and  _178
REMARK   60  A    between atoms: _181  and  _183
REMARK   61  A    between atoms: _183  and  _184
REMARK   62  A    between atoms: _183  and  _186
REMARK   63  A    between atoms: _186  and  _187
REMARK   64  A    between atoms: _188  and  ZN_412
REMARK   65  A    between atoms: _192  and  _194
REMARK   66  A    between atoms: _194  and  _195
REMARK   67  A    between atoms: _194  and  _197
REMARK   68  A    between atoms: _197  and  _198
REMARK   69  A    between atoms: _201  and  _203
REMARK   70  A    between atoms: _203  and  _204
REMARK   71  A    between atoms: _203  and  _206
REMARK   72  A    between atoms: _209  and  _211
REMARK   73  A    between atoms: _211  and  _212
REMARK   74  A    between atoms: _211  and  _214
REMARK   75  A    between atoms: _214  and  _215
REMARK   76  A    between atoms: _220  and  _222
REMARK   77  A    between atoms: _222  and  _223
REMARK   78  A    between atoms: _222  and  _225
REMARK   79  A    between atoms: _225  and  _226
REMARK   80  A    between atoms: _236  and  _238
REMARK   81  A    between atoms: _238  and  _239
REMARK   82  A    between atoms: _238  and  _241
REMARK   83  A    between atoms: _241  and  _242
REMARK   84  A    between atoms: _248  and  _250
REMARK   85  A    between atoms: _250  and  _251
REMARK   86  A    between atoms: _250  and  _253
REMARK   87  A    between atoms: _256  and  _258
REMARK   88  A    between atoms: _258  and  _259
REMARK   89  A    between atoms: _258  and  _261
REMARK   90  A    between atoms: _261  and  _262
REMARK   91  A    between atoms: _265  and  _267
REMARK   92  A    between atoms: _267  and  _268
REMARK   93  A    between atoms: _271  and  _273
REMARK   94  A    between atoms: _273  and  _274
REMARK   95  A    between atoms: _273  and  _276
REMARK   96  A    between atoms: _279  and  _281
REMARK   97  A    between atoms: _281  and  _282
REMARK   98  A    between atoms: _281  and  _284
REMARK   99  A    between atoms: _284  and  _285
REMARK  100  A    between atoms: _288  and  _290
REMARK  101  A    between atoms: _290  and  _291
REMARK  102  A    between atoms: _293  and  _295
REMARK  103  A    between atoms: _295  and  _296
REMARK  104  A    between atoms: _295  and  _298
REMARK  105  A    between atoms: _298  and  _299
REMARK  106  A    between atoms: _301  and  _303
REMARK  107  A    between atoms: _303  and  _304
REMARK  108  A    between atoms: _303  and  _306
REMARK  109  A    between atoms: _306  and  _307
REMARK  110  A    between atoms: _310  and  _312
REMARK  111  A    between atoms: _312  and  _313
REMARK  112  A    between atoms: _312  and  _315
REMARK  113  A    between atoms: _315  and  _316
REMARK  114  A    between atoms: _319  and  _321
REMARK  115  A    between atoms: _321  and  _322
REMARK  116  A    between atoms: _321  and  _324
REMARK  117  A    between atoms: _324  and  _325
REMARK  118  A    between atoms: _329  and  _330
REMARK  119  A    between atoms: _336  and  _337
REMARK  120  A    between atoms: _342  and  _344
REMARK  121  A    between atoms: _344  and  _345
REMARK  122  A    between atoms: _344  and  _347
REMARK  123  A    between atoms: _347  and  _348
REMARK  124  A    between atoms: _351  and  _353
REMARK  125  A    between atoms: _353  and  _354
REMARK  126  A    between atoms: _353  and  _356
REMARK  127  A    between atoms: _356  and  _357
REMARK  128  A    between atoms: _360  and  _362
REMARK  129  A    between atoms: _362  and  _363
REMARK  130  A    between atoms: _362  and  _365
REMARK  131  A    between atoms: _368  and  _370
REMARK  132  A    between atoms: _370  and  _371
REMARK  133  A    between atoms: _370  and  _373
REMARK  134  A    between atoms: _373  and  _374
REMARK  135  A    between atoms: _384  and  _386
REMARK  136  A    between atoms: _386  and  _387
REMARK  137  A    between atoms: _386  and  _389
REMARK  138  A    between atoms: _389  and  _390
REMARK  139  A    between atoms: _395  and  _397
REMARK  140  A    between atoms: _397  and  _398
REMARK  141  A    between atoms: _397  and  _400
REMARK  142  A    between atoms: _400  and  _401
REMARK  143  A    between atoms: _401  and  _402
REMARK  144  A    between atoms: _402  and  _403
REMARK                            x       y       z     vdW  Elec       q    Type
REMARK                         _______ _______ _______ _____ _____    ______ ____
ROOT
ATOM      1  CG  TRP A   1      -8.745   0.088  23.957  0.00  0.00    -0.002 A 
ATOM      2  CD1 TRP A   1      -7.527   0.687  24.132  0.00  0.00    +0.068 A 
ATOM      3  NE1 TRP A   1      -6.811   0.658  22.955  0.00  0.00    -0.352 N 
ATOM      4  HE1 TRP A   1      -5.858   1.052  22.816  0.00  0.00    +0.166 HD
ATOM      5  CE2 TRP A   1      -7.559   0.026  21.998  0.00  0.00    +0.056 A 
ATOM      6  CZ2 TRP A   1      -7.262  -0.246  20.660  0.00  0.00    +0.017 A 
ATOM      7  CH2 TRP A   1      -8.220  -0.911  19.919  0.00  0.00    +0.001 A 
ATOM      8  CZ3 TRP A   1      -9.448  -1.303  20.489  0.00  0.00    +0.000 A 
ATOM      9  CE3 TRP A   1      -9.739  -1.028  21.821  0.00  0.00    +0.001 A 
ATOM     10  CD2 TRP A   1      -8.783  -0.352  22.595  0.00  0.00    +0.013 A 
ENDROOT
BRANCH   1  11
ATOM     11  CB  TRP A   1      -9.867   0.007  24.939  0.00  0.00    +0.053 C 
BRANCH  11  12
ATOM     12  CA  TRP A   1     -10.883   1.169  24.790  0.00  0.00    +0.137 C 
BRANCH  12  13
ATOM     13  N   TRP A   1     -10.420   2.352  25.497  0.00  0.00    -0.239 NA
ATOM     14  H   TRP A   1      -9.821   2.242  26.340  0.00  0.00    +0.142 HD
ENDBRANCH  12  13
BRANCH  12  15
ATOM     15  C   TRP A   1     -12.236   0.697  25.297  0.00  0.00    +0.224 C 
ATOM     16  O   TRP A   1     -12.475   0.627  26.506  0.00  0.00    -0.287 OA
ENDBRANCH  12  15
ENDBRANCH  11  12
ENDBRANCH   1  11
TORSDOF 4
REMARK  Name = ../refined-set-2016/4xe1/4xe1_pocket.pdb
REMARK  144 active torsions:
REMARK  status: ('A' for Active; 'I' for Inactive)
REMARK    1  A    between atoms: _1  and  _3
REMARK    2  A    between atoms: _3  and  _4
REMARK    3  A    between atoms: _3  and  _6
REMARK    4  A    between atoms: _6  and  _7
REMARK    5  A    between atoms: _17  and  _19
REMARK    6  A    between atoms: _19  and  _20
REMARK    7  A    between atoms: _19  and  _22
REMARK    8  A    between atoms: _22  and  _23
REMARK    9  A    between atoms: _28  and  _29
REMARK   10  A    between atoms: _31  and  _33
REMARK   11  A    between atoms: _33  and  _34
REMARK   12  A    between atoms: _33  and  _36
REMARK   13  A    between atoms: _36  and  _37
REMARK   14  A    between atoms: _40  and  _41
REMARK   15  A    between atoms: _46  and  _48
REMARK   16  A    between atoms: _48  and  _49
REMARK   17  A    between atoms: _48  and  _51
REMARK   18  A    between atoms: _51  and  _52
REMARK   19  A    between atoms: _57  and  _59
REMARK   20  A    between atoms: _59  and  _60
REMARK   21  A    between atoms: _63  and  _65
REMARK   22  A    between atoms: _65  and  _66
REMARK   23  A    between atoms: _65  and  _68
REMARK   24  A    between atoms: _68  and  _69
REMARK   25  A    between atoms: _74  and  _76
REMARK   26  A    between atoms: _76  and  _77
REMARK   27  A    between atoms: _76  and  _79
REMARK   28  A    between atoms: _79  and  _80
REMARK   29  A    between atoms: _83  and  _85
REMARK   30  A    between atoms: _85  and  _86
REMARK   31  A    between atoms: _85  and  _88
REMARK   32  A    between atoms: _88  and  _89
REMARK   33  A    between atoms: _89  and  _90
REMARK   34  A    between atoms: _95  and  _97
REMARK   35  A    between atoms: _97  and  _98
REMARK   36  A    between atoms: _97  and  _100
REMARK   37  A    between atoms: _100  and  _101
REMARK   38  A    between atoms: _107  and  _109
REMARK   39  A    between atoms: _120  and  _123
REMARK   40  A    between atoms: _123  and  _124
REMARK   41  A    between atoms: _132  and  _133
REMARK   42  A    between atoms: _141  and  _143
REMARK   43  A    between atoms: _143  and  _144
REMARK   44  A    between atoms: _143  and  _146
REMARK   45  A    between atoms: _146  and  _147
REMARK   46  A    between atoms: _147  and  _148
REMARK   47  A    between atoms: _151  and  _153
REMARK   48  A    between atoms: _153  and  _154
REMARK   49  A    between atoms: _153  and  _156
REMARK   50  A    between atoms: _156  and  _157
REMARK   51  A    between atoms: _162  and  _164
REMARK   52  A    between atoms: _164  and  _165
REMARK   53  A    between atoms: _164  and  _167
REMARK   54  A    between atoms: _167  and  _168
REMARK   55  A    between atoms: _168  and  _169
REMARK   56  A    between atoms: _172  and  _174
REMARK   57  A    between atoms: _174  and  _175
REMARK   58  A    between atoms: _174  and  _177
REMARK   59  A    between atoms: _177  and  _178
REMARK   60  A    between atoms: _181  and  _183
REMARK   61  A    between atoms: _183  and  _184
REMARK   62  A    between atoms: _183  and  _186
REMARK   63  A    between atoms: _186  and  _187
REMARK   64  A    between atoms: _188  and  ZN_412
REMARK   65  A    between atoms: _192  and  _194
REMARK   66  A    between atoms: _194  and  _195
REMARK   67  A    between atoms: _194  and  _197
REMARK   68  A    between atoms: _197  and  _198
REMARK   69  A    between atoms: _201  and  _203
REMARK   70  A    between atoms: _203  and  _204
REMARK   71  A    between atoms: _203  and  _206
REMARK   72  A    between atoms: _209  and  _211
REMARK   73  A    between atoms: _211  and  _212
REMARK   74  A    between atoms: _211  and  _214
REMARK   75  A    between atoms: _214  and  _215
REMARK   76  A    between atoms: _220  and  _222
REMARK   77  A    between atoms: _222  and  _223
REMARK   78  A    between atoms: _222  and  _225
REMARK   79  A    between atoms: _225  and  _226
REMARK   80  A    between atoms: _236  and  _238
REMARK   81  A    between atoms: _238  and  _239
REMARK   82  A    between atoms: _238  and  _241
REMARK   83  A    between atoms: _241  and  _242
REMARK   84  A    between atoms: _248  and  _250
REMARK   85  A    between atoms: _250  and  _251
REMARK   86  A    between atoms: _250  and  _253
REMARK   87  A    between atoms: _256  and  _258
REMARK   88  A    between atoms: _258  and  _259
REMARK   89  A    between atoms: _258  and  _261
REMARK   90  A    between atoms: _261  and  _262
REMARK   91  A    between atoms: _265  and  _267
REMARK   92  A    between atoms: _267  and  _268
REMARK   93  A    between atoms: _271  and  _273
REMARK   94  A    between atoms: _273  and  _274
REMARK   95  A    between atoms: _273  and  _276
REMARK   96  A    between atoms: _279  and  _281
REMARK   97  A    between atoms: _281  and  _282
REMARK   98  A    between atoms: _281  and  _284
REMARK   99  A    between atoms: _284  and  _285
REMARK  100  A    between atoms: _288  and  _290
REMARK  101  A    between atoms: _290  and  _291
REMARK  102  A    between atoms: _293  and  _295
REMARK  103  A    between atoms: _295  and  _296
REMARK  104  A    between atoms: _295  and  _298
REMARK  105  A    between atoms: _298  and  _299
REMARK  106  A    between atoms: _301  and  _303
REMARK  107  A    between atoms: _303  and  _304
REMARK  108  A    between atoms: _303  and  _306
REMARK  109  A    between atoms: _306  and  _307
REMARK  110  A    between atoms: _310  and  _312
REMARK  111  A    between atoms: _312  and  _313
REMARK  112  A    between atoms: _312  and  _315
REMARK  113  A    between atoms: _315  and  _316
REMARK  114  A    between atoms: _319  and  _321
REMARK  115  A    between atoms: _321  and  _322
REMARK  116  A    between atoms: _321  and  _324
REMARK  117  A    between atoms: _324  and  _325
REMARK  118  A    between atoms: _329  and  _330
REMARK  119  A    between atoms: _336  and  _337
REMARK  120  A    between atoms: _342  and  _344
REMARK  121  A    between atoms: _344  and  _345
REMARK  122  A    between atoms: _344  and  _347
REMARK  123  A    between atoms: _347  and  _348
REMARK  124  A    between atoms: _351  and  _353
REMARK  125  A    between atoms: _353  and  _354
REMARK  126  A    between atoms: _353  and  _356
REMARK  127  A    between atoms: _356  and  _357
REMARK  128  A    between atoms: _360  and  _362
REMARK  129  A    between atoms: _362  and  _363
REMARK  130  A    between atoms: _362  and  _365
REMARK  131  A    between atoms: _368  and  _370
REMARK  132  A    between atoms: _370  and  _371
REMARK  133  A    between atoms: _370  and  _373
REMARK  134  A    between atoms: _373  and  _374
REMARK  135  A    between atoms: _384  and  _386
REMARK  136  A    between atoms: _386  and  _387
REMARK  137  A    between atoms: _386  and  _389
REMARK  138  A    between atoms: _389  and  _390
REMARK  139  A    between atoms: _395  and  _397
REMARK  140  A    between atoms: _397  and  _398
REMARK  141  A    between atoms: _397  and  _400
REMARK  142  A    between atoms: _400  and  _401
REMARK  143  A    between atoms: _401  and  _402
REMARK  144  A    between atoms: _402  and  _403
REMARK                            x       y       z     vdW  Elec       q    Type
REMARK                         _______ _______ _______ _____ _____    ______ ____
ROOT
ATOM      1  CB  ASN A   1      -1.985  -7.446  10.351  0.00  0.00    +0.110 C 
ENDROOT
BRANCH   1   2
ATOM      2  CG  ASN A   1      -3.488  -7.578  10.214  0.00  0.00    +0.221 C 
ATOM      3  OD1 ASN A   1      -4.098  -8.453  10.818  0.00  0.00    -0.275 OA
ATOM      4  ND2 ASN A   1      -4.093  -6.706   9.408  0.00  0.00    -0.329 N 
ATOM      5 HD21 ASN A   1      -5.123  -6.752   9.272  0.00  0.00    +0.145 HD
ATOM      6 HD22 ASN A   1      -3.535  -5.980   8.915  0.00  0.00    +0.145 HD
ENDBRANCH   1   2
BRANCH   1   7
ATOM      7  CA  ASN A   1      -1.417  -8.297  11.489  0.00  0.00    +0.142 C 
BRANCH   7   8
ATOM      8  N   ASN A   1      -1.804  -9.687  11.305  0.00  0.00    -0.239 NA
ATOM      9  H   ASN A   1      -2.736  -9.915  10.904  0.00  0.00    +0.142 HD
ENDBRANCH   7   8
BRANCH   7  10
ATOM     10  C   ASN A   1      -1.948  -7.835  12.850  0.00  0.00    +0.225 C 
ATOM     11  O   ASN A   1      -2.581  -6.786  12.969  0.00  0.00    -0.287 OA
ENDBRANCH   7  10
ENDBRANCH   1   7
TORSDOF 4
REMARK  Name = ../refined-set-2016/4xe1/4xe1_pocket.pdb
REMARK  144 active torsions:
REMARK  status: ('A' for Active; 'I' for Inactive)
REMARK    1  A    between atoms: _1  and  _3
REMARK    2  A    between atoms: _3  and  _4
REMARK    3  A    between atoms: _3  and  _6
REMARK    4  A    between atoms: _6  and  _7
REMARK    5  A    between atoms: _17  and  _19
REMARK    6  A    between atoms: _19  and  _20
REMARK    7  A    between atoms: _19  and  _22
REMARK    8  A    between atoms: _22  and  _23
REMARK    9  A    between atoms: _28  and  _29
REMARK   10  A    between atoms: _31  and  _33
REMARK   11  A    between atoms: _33  and  _34
REMARK   12  A    between atoms: _33  and  _36
REMARK   13  A    between atoms: _36  and  _37
REMARK   14  A    between atoms: _40  and  _41
REMARK   15  A    between atoms: _46  and  _48
REMARK   16  A    between atoms: _48  and  _49
REMARK   17  A    between atoms: _48  and  _51
REMARK   18  A    between atoms: _51  and  _52
REMARK   19  A    between atoms: _57  and  _59
REMARK   20  A    between atoms: _59  and  _60
REMARK   21  A    between atoms: _63  and  _65
REMARK   22  A    between atoms: _65  and  _66
REMARK   23  A    between atoms: _65  and  _68
REMARK   24  A    between atoms: _68  and  _69
REMARK   25  A    between atoms: _74  and  _76
REMARK   26  A    between atoms: _76  and  _77
REMARK   27  A    between atoms: _76  and  _79
REMARK   28  A    between atoms: _79  and  _80
REMARK   29  A    between atoms: _83  and  _85
REMARK   30  A    between atoms: _85  and  _86
REMARK   31  A    between atoms: _85  and  _88
REMARK   32  A    between atoms: _88  and  _89
REMARK   33  A    between atoms: _89  and  _90
REMARK   34  A    between atoms: _95  and  _97
REMARK   35  A    between atoms: _97  and  _98
REMARK   36  A    between atoms: _97  and  _100
REMARK   37  A    between atoms: _100  and  _101
REMARK   38  A    between atoms: _107  and  _109
REMARK   39  A    between atoms: _120  and  _123
REMARK   40  A    between atoms: _123  and  _124
REMARK   41  A    between atoms: _132  and  _133
REMARK   42  A    between atoms: _141  and  _143
REMARK   43  A    between atoms: _143  and  _144
REMARK   44  A    between atoms: _143  and  _146
REMARK   45  A    between atoms: _146  and  _147
REMARK   46  A    between atoms: _147  and  _148
REMARK   47  A    between atoms: _151  and  _153
REMARK   48  A    between atoms: _153  and  _154
REMARK   49  A    between atoms: _153  and  _156
REMARK   50  A    between atoms: _156  and  _157
REMARK   51  A    between atoms: _162  and  _164
REMARK   52  A    between atoms: _164  and  _165
REMARK   53  A    between atoms: _164  and  _167
REMARK   54  A    between atoms: _167  and  _168
REMARK   55  A    between atoms: _168  and  _169
REMARK   56  A    between atoms: _172  and  _174
REMARK   57  A    between atoms: _174  and  _175
REMARK   58  A    between atoms: _174  and  _177
REMARK   59  A    between atoms: _177  and  _178
REMARK   60  A    between atoms: _181  and  _183
REMARK   61  A    between atoms: _183  and  _184
REMARK   62  A    between atoms: _183  and  _186
REMARK   63  A    between atoms: _186  and  _187
REMARK   64  A    between atoms: _188  and  ZN_412
REMARK   65  A    between atoms: _192  and  _194
REMARK   66  A    between atoms: _194  and  _195
REMARK   67  A    between atoms: _194  and  _197
REMARK   68  A    between atoms: _197  and  _198
REMARK   69  A    between atoms: _201  and  _203
REMARK   70  A    between atoms: _203  and  _204
REMARK   71  A    between atoms: _203  and  _206
REMARK   72  A    between atoms: _209  and  _211
REMARK   73  A    between atoms: _211  and  _212
REMARK   74  A    between atoms: _211  and  _214
REMARK   75  A    between atoms: _214  and  _215
REMARK   76  A    between atoms: _220  and  _222
REMARK   77  A    between atoms: _222  and  _223
REMARK   78  A    between atoms: _222  and  _225
REMARK   79  A    between atoms: _225  and  _226
REMARK   80  A    between atoms: _236  and  _238
REMARK   81  A    between atoms: _238  and  _239
REMARK   82  A    between atoms: _238  and  _241
REMARK   83  A    between atoms: _241  and  _242
REMARK   84  A    between atoms: _248  and  _250
REMARK   85  A    between atoms: _250  and  _251
REMARK   86  A    between atoms: _250  and  _253
REMARK   87  A    between atoms: _256  and  _258
REMARK   88  A    between atoms: _258  and  _259
REMARK   89  A    between atoms: _258  and  _261
REMARK   90  A    between atoms: _261  and  _262
REMARK   91  A    between atoms: _265  and  _267
REMARK   92  A    between atoms: _267  and  _268
REMARK   93  A    between atoms: _271  and  _273
REMARK   94  A    between atoms: _273  and  _274
REMARK   95  A    between atoms: _273  and  _276
REMARK   96  A    between atoms: _279  and  _281
REMARK   97  A    between atoms: _281  and  _282
REMARK   98  A    between atoms: _281  and  _284
REMARK   99  A    between atoms: _284  and  _285
REMARK  100  A    between atoms: _288  and  _290
REMARK  101  A    between atoms: _290  and  _291
REMARK  102  A    between atoms: _293  and  _295
REMARK  103  A    between atoms: _295  and  _296
REMARK  104  A    between atoms: _295  and  _298
REMARK  105  A    between atoms: _298  and  _299
REMARK  106  A    between atoms: _301  and  _303
REMARK  107  A    between atoms: _303  and  _304
REMARK  108  A    between atoms: _303  and  _306
REMARK  109  A    between atoms: _306  and  _307
REMARK  110  A    between atoms: _310  and  _312
REMARK  111  A    between atoms: _312  and  _313
REMARK  112  A    between atoms: _312  and  _315
REMARK  113  A    between atoms: _315  and  _316
REMARK  114  A    between atoms: _319  and  _321
REMARK  115  A    between atoms: _321  and  _322
REMARK  116  A    between atoms: _321  and  _324
REMARK  117  A    between atoms: _324  and  _325
REMARK  118  A    between atoms: _329  and  _330
REMARK  119  A    between atoms: _336  and  _337
REMARK  120  A    between atoms: _342  and  _344
REMARK  121  A    between atoms: _344  and  _345
REMARK  122  A    between atoms: _344  and  _347
REMARK  123  A    between atoms: _347  and  _348
REMARK  124  A    between atoms: _351  and  _353
REMARK  125  A    between atoms: _353  and  _354
REMARK  126  A    between atoms: _353  and  _356
REMARK  127  A    between atoms: _356  and  _357
REMARK  128  A    between atoms: _360  and  _362
REMARK  129  A    between atoms: _362  and  _363
REMARK  130  A    between atoms: _362  and  _365
REMARK  131  A    between atoms: _368  and  _370
REMARK  132  A    between atoms: _370  and  _371
REMARK  133  A    between atoms: _370  and  _373
REMARK  134  A    between atoms: _373  and  _374
REMARK  135  A    between atoms: _384  and  _386
REMARK  136  A    between atoms: _386  and  _387
REMARK  137  A    between atoms: _386  and  _389
REMARK  138  A    between atoms: _389  and  _390
REMARK  139  A    between atoms: _395  and  _397
REMARK  140  A    between atoms: _397  and  _398
REMARK  141  A    between atoms: _397  and  _400
REMARK  142  A    between atoms: _400  and  _401
REMARK  143  A    between atoms: _401  and  _402
REMARK  144  A    between atoms: _402  and  _403
REMARK                            x       y       z     vdW  Elec       q    Type
REMARK                         _______ _______ _______ _____ _____    ______ ____
ROOT
ATOM      1  NE  ARG A   1       2.272  -3.876  21.037  0.00  0.00    -0.265 N 
ATOM      2  CZ  ARG A   1       2.476  -2.855  21.873  0.00  0.00    +0.342 C 
ATOM      3  NH2 ARG A   1       3.702  -2.616  22.334  0.00  0.00    -0.292 N 
ATOM      4 HH21 ARG A   1       3.867  -1.822  22.985  0.00  0.00    +0.255 HD
ATOM      5 HH22 ARG A   1       4.495  -3.223  22.043  0.00  0.00    +0.255 HD
ATOM      6  NH1 ARG A   1       1.471  -2.063  22.234  0.00  0.00    -0.292 N 
ATOM      7 HH11 ARG A   1       1.642  -1.271  22.886  0.00  0.00    +0.255 HD
ATOM      8 HH12 ARG A   1       0.514  -2.236  21.865  0.00  0.00    +0.255 HD
ATOM      9  HE  ARG A   1       3.092  -4.470  20.799  0.00  0.00    +0.259 HD
ENDROOT
BRANCH   1  10
ATOM     10  CD  ARG A   1       0.985  -4.228  20.427  0.00  0.00    +0.174 C 
BRANCH  10  11
ATOM     11  CG  ARG A   1       1.056  -5.616  19.783  0.00  0.00    +0.045 C 
BRANCH  11  12
ATOM     12  CB  ARG A   1      -0.029  -5.835  18.729  0.00  0.00    +0.029 C 
BRANCH  12  13
ATOM     13  CA  ARG A   1      -0.155  -7.295  18.280  0.00  0.00    +0.133 C 
BRANCH  13  14
ATOM     14  N   ARG A   1      -1.155  -7.426  17.228  0.00  0.00    -0.239 NA
ATOM     15  H   ARG A   1      -2.019  -6.849  17.278  0.00  0.00    +0.142 HD
ENDBRANCH  13  14
BRANCH  13  16
ATOM     16  C   ARG A   1      -0.620  -8.153  19.462  0.00  0.00    +0.224 C 
ATOM     17  O   ARG A   1      -1.797  -8.154  19.812  0.00  0.00    -0.287 OA
ENDBRANCH  13  16
ENDBRANCH  12  13
ENDBRANCH  11  12
ENDBRANCH  10  11
ENDBRANCH   1  10
TORSDOF 6
REMARK  Name = ../refined-set-2016/4xe1/4xe1_pocket.pdb
REMARK  144 active torsions:
REMARK  status: ('A' for Active; 'I' for Inactive)
REMARK    1  A    between atoms: _1  and  _3
REMARK    2  A    between atoms: _3  and  _4
REMARK    3  A    between atoms: _3  and  _6
REMARK    4  A    between atoms: _6  and  _7
REMARK    5  A    between atoms: _17  and  _19
REMARK    6  A    between atoms: _19  and  _20
REMARK    7  A    between atoms: _19  and  _22
REMARK    8  A    between atoms: _22  and  _23
REMARK    9  A    between atoms: _28  and  _29
REMARK   10  A    between atoms: _31  and  _33
REMARK   11  A    between atoms: _33  and  _34
REMARK   12  A    between atoms: _33  and  _36
REMARK   13  A    between atoms: _36  and  _37
REMARK   14  A    between atoms: _40  and  _41
REMARK   15  A    between atoms: _46  and  _48
REMARK   16  A    between atoms: _48  and  _49
REMARK   17  A    between atoms: _48  and  _51
REMARK   18  A    between atoms: _51  and  _52
REMARK   19  A    between atoms: _57  and  _59
REMARK   20  A    between atoms: _59  and  _60
REMARK   21  A    between atoms: _63  and  _65
REMARK   22  A    between atoms: _65  and  _66
REMARK   23  A    between atoms: _65  and  _68
REMARK   24  A    between atoms: _68  and  _69
REMARK   25  A    between atoms: _74  and  _76
REMARK   26  A    between atoms: _76  and  _77
REMARK   27  A    between atoms: _76  and  _79
REMARK   28  A    between atoms: _79  and  _80
REMARK   29  A    between atoms: _83  and  _85
REMARK   30  A    between atoms: _85  and  _86
REMARK   31  A    between atoms: _85  and  _88
REMARK   32  A    between atoms: _88  and  _89
REMARK   33  A    between atoms: _89  and  _90
REMARK   34  A    between atoms: _95  and  _97
REMARK   35  A    between atoms: _97  and  _98
REMARK   36  A    between atoms: _97  and  _100
REMARK   37  A    between atoms: _100  and  _101
REMARK   38  A    between atoms: _107  and  _109
REMARK   39  A    between atoms: _120  and  _123
REMARK   40  A    between atoms: _123  and  _124
REMARK   41  A    between atoms: _132  and  _133
REMARK   42  A    between atoms: _141  and  _143
REMARK   43  A    between atoms: _143  and  _144
REMARK   44  A    between atoms: _143  and  _146
REMARK   45  A    between atoms: _146  and  _147
REMARK   46  A    between atoms: _147  and  _148
REMARK   47  A    between atoms: _151  and  _153
REMARK   48  A    between atoms: _153  and  _154
REMARK   49  A    between atoms: _153  and  _156
REMARK   50  A    between atoms: _156  and  _157
REMARK   51  A    between atoms: _162  and  _164
REMARK   52  A    between atoms: _164  and  _165
REMARK   53  A    between atoms: _164  and  _167
REMARK   54  A    between atoms: _167  and  _168
REMARK   55  A    between atoms: _168  and  _169
REMARK   56  A    between atoms: _172  and  _174
REMARK   57  A    between atoms: _174  and  _175
REMARK   58  A    between atoms: _174  and  _177
REMARK   59  A    between atoms: _177  and  _178
REMARK   60  A    between atoms: _181  and  _183
REMARK   61  A    between atoms: _183  and  _184
REMARK   62  A    between atoms: _183  and  _186
REMARK   63  A    between atoms: _186  and  _187
REMARK   64  A    between atoms: _188  and  ZN_412
REMARK   65  A    between atoms: _192  and  _194
REMARK   66  A    between atoms: _194  and  _195
REMARK   67  A    between atoms: _194  and  _197
REMARK   68  A    between atoms: _197  and  _198
REMARK   69  A    between atoms: _201  and  _203
REMARK   70  A    between atoms: _203  and  _204
REMARK   71  A    between atoms: _203  and  _206
REMARK   72  A    between atoms: _209  and  _211
REMARK   73  A    between atoms: _211  and  _212
REMARK   74  A    between atoms: _211  and  _214
REMARK   75  A    between atoms: _214  and  _215
REMARK   76  A    between atoms: _220  and  _222
REMARK   77  A    between atoms: _222  and  _223
REMARK   78  A    between atoms: _222  and  _225
REMARK   79  A    between atoms: _225  and  _226
REMARK   80  A    between atoms: _236  and  _238
REMARK   81  A    between atoms: _238  and  _239
REMARK   82  A    between atoms: _238  and  _241
REMARK   83  A    between atoms: _241  and  _242
REMARK   84  A    between atoms: _248  and  _250
REMARK   85  A    between atoms: _250  and  _251
REMARK   86  A    between atoms: _250  and  _253
REMARK   87  A    between atoms: _256  and  _258
REMARK   88  A    between atoms: _258  and  _259
REMARK   89  A    between atoms: _258  and  _261
REMARK   90  A    between atoms: _261  and  _262
REMARK   91  A    between atoms: _265  and  _267
REMARK   92  A    between atoms: _267  and  _268
REMARK   93  A    between atoms: _271  and  _273
REMARK   94  A    between atoms: _273  and  _274
REMARK   95  A    between atoms: _273  and  _276
REMARK   96  A    between atoms: _279  and  _281
REMARK   97  A    between atoms: _281  and  _282
REMARK   98  A    between atoms: _281  and  _284
REMARK   99  A    between atoms: _284  and  _285
REMARK  100  A    between atoms: _288  and  _290
REMARK  101  A    between atoms: _290  and  _291
REMARK  102  A    between atoms: _293  and  _295
REMARK  103  A    between atoms: _295  and  _296
REMARK  104  A    between atoms: _295  and  _298
REMARK  105  A    between atoms: _298  and  _299
REMARK  106  A    between atoms: _301  and  _303
REMARK  107  A    between atoms: _303  and  _304
REMARK  108  A    between atoms: _303  and  _306
REMARK  109  A    between atoms: _306  and  _307
REMARK  110  A    between atoms: _310  and  _312
REMARK  111  A    between atoms: _312  and  _313
REMARK  112  A    between atoms: _312  and  _315
REMARK  113  A    between atoms: _315  and  _316
REMARK  114  A    between atoms: _319  and  _321
REMARK  115  A    between atoms: _321  and  _322
REMARK  116  A    between atoms: _321  and  _324
REMARK  117  A    between atoms: _324  and  _325
REMARK  118  A    between atoms: _329  and  _330
REMARK  119  A    between atoms: _336  and  _337
REMARK  120  A    between atoms: _342  and  _344
REMARK  121  A    between atoms: _344  and  _345
REMARK  122  A    between atoms: _344  and  _347
REMARK  123  A    between atoms: _347  and  _348
REMARK  124  A    between atoms: _351  and  _353
REMARK  125  A    between atoms: _353  and  _354
REMARK  126  A    between atoms: _353  and  _356
REMARK  127  A    between atoms: _356  and  _357
REMARK  128  A    between atoms: _360  and  _362
REMARK  129  A    between atoms: _362  and  _363
REMARK  130  A    between atoms: _362  and  _365
REMARK  131  A    between atoms: _368  and  _370
REMARK  132  A    between atoms: _370  and  _371
REMARK  133  A    between atoms: _370  and  _373
REMARK  134  A    between atoms: _373  and  _374
REMARK  135  A    between atoms: _384  and  _386
REMARK  136  A    between atoms: _386  and  _387
REMARK  137  A    between atoms: _386  and  _389
REMARK  138  A    between atoms: _389  and  _390
REMARK  139  A    between atoms: _395  and  _397
REMARK  140  A    between atoms: _397  and  _398
REMARK  141  A    between atoms: _397  and  _400
REMARK  142  A    between atoms: _400  and  _401
REMARK  143  A    between atoms: _401  and  _402
REMARK  144  A    between atoms: _402  and  _403
REMARK                            x       y       z     vdW  Elec       q    Type
REMARK                         _______ _______ _______ _____ _____    ______ ____
ROOT
ATOM      1  O   HOH     1      -6.933   5.819   6.430  0.00  0.00    +0.000 OA
ENDROOT
TORSDOF 0
REMARK  Name = ../refined-set-2016/4xe1/4xe1_pocket.pdb
REMARK  144 active torsions:
REMARK  status: ('A' for Active; 'I' for Inactive)
REMARK    1  A    between atoms: _1  and  _3
REMARK    2  A    between atoms: _3  and  _4
REMARK    3  A    between atoms: _3  and  _6
REMARK    4  A    between atoms: _6  and  _7
REMARK    5  A    between atoms: _17  and  _19
REMARK    6  A    between atoms: _19  and  _20
REMARK    7  A    between atoms: _19  and  _22
REMARK    8  A    between atoms: _22  and  _23
REMARK    9  A    between atoms: _28  and  _29
REMARK   10  A    between atoms: _31  and  _33
REMARK   11  A    between atoms: _33  and  _34
REMARK   12  A    between atoms: _33  and  _36
REMARK   13  A    between atoms: _36  and  _37
REMARK   14  A    between atoms: _40  and  _41
REMARK   15  A    between atoms: _46  and  _48
REMARK   16  A    between atoms: _48  and  _49
REMARK   17  A    between atoms: _48  and  _51
REMARK   18  A    between atoms: _51  and  _52
REMARK   19  A    between atoms: _57  and  _59
REMARK   20  A    between atoms: _59  and  _60
REMARK   21  A    between atoms: _63  and  _65
REMARK   22  A    between atoms: _65  and  _66
REMARK   23  A    between atoms: _65  and  _68
REMARK   24  A    between atoms: _68  and  _69
REMARK   25  A    between atoms: _74  and  _76
REMARK   26  A    between atoms: _76  and  _77
REMARK   27  A    between atoms: _76  and  _79
REMARK   28  A    between atoms: _79  and  _80
REMARK   29  A    between atoms: _83  and  _85
REMARK   30  A    between atoms: _85  and  _86
REMARK   31  A    between atoms: _85  and  _88
REMARK   32  A    between atoms: _88  and  _89
REMARK   33  A    between atoms: _89  and  _90
REMARK   34  A    between atoms: _95  and  _97
REMARK   35  A    between atoms: _97  and  _98
REMARK   36  A    between atoms: _97  and  _100
REMARK   37  A    between atoms: _100  and  _101
REMARK   38  A    between atoms: _107  and  _109
REMARK   39  A    between atoms: _120  and  _123
REMARK   40  A    between atoms: _123  and  _124
REMARK   41  A    between atoms: _132  and  _133
REMARK   42  A    between atoms: _141  and  _143
REMARK   43  A    between atoms: _143  and  _144
REMARK   44  A    between atoms: _143  and  _146
REMARK   45  A    between atoms: _146  and  _147
REMARK   46  A    between atoms: _147  and  _148
REMARK   47  A    between atoms: _151  and  _153
REMARK   48  A    between atoms: _153  and  _154
REMARK   49  A    between atoms: _153  and  _156
REMARK   50  A    between atoms: _156  and  _157
REMARK   51  A    between atoms: _162  and  _164
REMARK   52  A    between atoms: _164  and  _165
REMARK   53  A    between atoms: _164  and  _167
REMARK   54  A    between atoms: _167  and  _168
REMARK   55  A    between atoms: _168  and  _169
REMARK   56  A    between atoms: _172  and  _174
REMARK   57  A    between atoms: _174  and  _175
REMARK   58  A    between atoms: _174  and  _177
REMARK   59  A    between atoms: _177  and  _178
REMARK   60  A    between atoms: _181  and  _183
REMARK   61  A    between atoms: _183  and  _184
REMARK   62  A    between atoms: _183  and  _186
REMARK   63  A    between atoms: _186  and  _187
REMARK   64  A    between atoms: _188  and  ZN_412
REMARK   65  A    between atoms: _192  and  _194
REMARK   66  A    between atoms: _194  and  _195
REMARK   67  A    between atoms: _194  and  _197
REMARK   68  A    between atoms: _197  and  _198
REMARK   69  A    between atoms: _201  and  _203
REMARK   70  A    between atoms: _203  and  _204
REMARK   71  A    between atoms: _203  and  _206
REMARK   72  A    between atoms: _209  and  _211
REMARK   73  A    between atoms: _211  and  _212
REMARK   74  A    between atoms: _211  and  _214
REMARK   75  A    between atoms: _214  and  _215
REMARK   76  A    between atoms: _220  and  _222
REMARK   77  A    between atoms: _222  and  _223
REMARK   78  A    between atoms: _222  and  _225
REMARK   79  A    between atoms: _225  and  _226
REMARK   80  A    between atoms: _236  and  _238
REMARK   81  A    between atoms: _238  and  _239
REMARK   82  A    between atoms: _238  and  _241
REMARK   83  A    between atoms: _241  and  _242
REMARK   84  A    between atoms: _248  and  _250
REMARK   85  A    between atoms: _250  and  _251
REMARK   86  A    between atoms: _250  and  _253
REMARK   87  A    between atoms: _256  and  _258
REMARK   88  A    between atoms: _258  and  _259
REMARK   89  A    between atoms: _258  and  _261
REMARK   90  A    between atoms: _261  and  _262
REMARK   91  A    between atoms: _265  and  _267
REMARK   92  A    between atoms: _267  and  _268
REMARK   93  A    between atoms: _271  and  _273
REMARK   94  A    between atoms: _273  and  _274
REMARK   95  A    between atoms: _273  and  _276
REMARK   96  A    between atoms: _279  and  _281
REMARK   97  A    between atoms: _281  and  _282
REMARK   98  A    between atoms: _281  and  _284
REMARK   99  A    between atoms: _284  and  _285
REMARK  100  A    between atoms: _288  and  _290
REMARK  101  A    between atoms: _290  and  _291
REMARK  102  A    between atoms: _293  and  _295
REMARK  103  A    between atoms: _295  and  _296
REMARK  104  A    between atoms: _295  and  _298
REMARK  105  A    between atoms: _298  and  _299
REMARK  106  A    between atoms: _301  and  _303
REMARK  107  A    between atoms: _303  and  _304
REMARK  108  A    between atoms: _303  and  _306
REMARK  109  A    between atoms: _306  and  _307
REMARK  110  A    between atoms: _310  and  _312
REMARK  111  A    between atoms: _312  and  _313
REMARK  112  A    between atoms: _312  and  _315
REMARK  113  A    between atoms: _315  and  _316
REMARK  114  A    between atoms: _319  and  _321
REMARK  115  A    between atoms: _321  and  _322
REMARK  116  A    between atoms: _321  and  _324
REMARK  117  A    between atoms: _324  and  _325
REMARK  118  A    between atoms: _329  and  _330
REMARK  119  A    between atoms: _336  and  _337
REMARK  120  A    between atoms: _342  and  _344
REMARK  121  A    between atoms: _344  and  _345
REMARK  122  A    between atoms: _344  and  _347
REMARK  123  A    between atoms: _347  and  _348
REMARK  124  A    between atoms: _351  and  _353
REMARK  125  A    between atoms: _353  and  _354
REMARK  126  A    between atoms: _353  and  _356
REMARK  127  A    between atoms: _356  and  _357
REMARK  128  A    between atoms: _360  and  _362
REMARK  129  A    between atoms: _362  and  _363
REMARK  130  A    between atoms: _362  and  _365
REMARK  131  A    between atoms: _368  and  _370
REMARK  132  A    between atoms: _370  and  _371
REMARK  133  A    between atoms: _370  and  _373
REMARK  134  A    between atoms: _373  and  _374
REMARK  135  A    between atoms: _384  and  _386
REMARK  136  A    between atoms: _386  and  _387
REMARK  137  A    between atoms: _386  and  _389
REMARK  138  A    between atoms: _389  and  _390
REMARK  139  A    between atoms: _395  and  _397
REMARK  140  A    between atoms: _397  and  _398
REMARK  141  A    between atoms: _397  and  _400
REMARK  142  A    between atoms: _400  and  _401
REMARK  143  A    between atoms: _401  and  _402
REMARK  144  A    between atoms: _402  and  _403
REMARK                            x       y       z     vdW  Elec       q    Type
REMARK                         _______ _______ _______ _____ _____    ______ ____
ROOT
ATOM      1  O   HOH     1      -3.764   4.696   7.063  0.00  0.00    +0.000 OA
ENDROOT
TORSDOF 0
REMARK  Name = ../refined-set-2016/4xe1/4xe1_pocket.pdb
REMARK  144 active torsions:
REMARK  status: ('A' for Active; 'I' for Inactive)
REMARK    1  A    between atoms: _1  and  _3
REMARK    2  A    between atoms: _3  and  _4
REMARK    3  A    between atoms: _3  and  _6
REMARK    4  A    between atoms: _6  and  _7
REMARK    5  A    between atoms: _17  and  _19
REMARK    6  A    between atoms: _19  and  _20
REMARK    7  A    between atoms: _19  and  _22
REMARK    8  A    between atoms: _22  and  _23
REMARK    9  A    between atoms: _28  and  _29
REMARK   10  A    between atoms: _31  and  _33
REMARK   11  A    between atoms: _33  and  _34
REMARK   12  A    between atoms: _33  and  _36
REMARK   13  A    between atoms: _36  and  _37
REMARK   14  A    between atoms: _40  and  _41
REMARK   15  A    between atoms: _46  and  _48
REMARK   16  A    between atoms: _48  and  _49
REMARK   17  A    between atoms: _48  and  _51
REMARK   18  A    between atoms: _51  and  _52
REMARK   19  A    between atoms: _57  and  _59
REMARK   20  A    between atoms: _59  and  _60
REMARK   21  A    between atoms: _63  and  _65
REMARK   22  A    between atoms: _65  and  _66
REMARK   23  A    between atoms: _65  and  _68
REMARK   24  A    between atoms: _68  and  _69
REMARK   25  A    between atoms: _74  and  _76
REMARK   26  A    between atoms: _76  and  _77
REMARK   27  A    between atoms: _76  and  _79
REMARK   28  A    between atoms: _79  and  _80
REMARK   29  A    between atoms: _83  and  _85
REMARK   30  A    between atoms: _85  and  _86
REMARK   31  A    between atoms: _85  and  _88
REMARK   32  A    between atoms: _88  and  _89
REMARK   33  A    between atoms: _89  and  _90
REMARK   34  A    between atoms: _95  and  _97
REMARK   35  A    between atoms: _97  and  _98
REMARK   36  A    between atoms: _97  and  _100
REMARK   37  A    between atoms: _100  and  _101
REMARK   38  A    between atoms: _107  and  _109
REMARK   39  A    between atoms: _120  and  _123
REMARK   40  A    between atoms: _123  and  _124
REMARK   41  A    between atoms: _132  and  _133
REMARK   42  A    between atoms: _141  and  _143
REMARK   43  A    between atoms: _143  and  _144
REMARK   44  A    between atoms: _143  and  _146
REMARK   45  A    between atoms: _146  and  _147
REMARK   46  A    between atoms: _147  and  _148
REMARK   47  A    between atoms: _151  and  _153
REMARK   48  A    between atoms: _153  and  _154
REMARK   49  A    between atoms: _153  and  _156
REMARK   50  A    between atoms: _156  and  _157
REMARK   51  A    between atoms: _162  and  _164
REMARK   52  A    between atoms: _164  and  _165
REMARK   53  A    between atoms: _164  and  _167
REMARK   54  A    between atoms: _167  and  _168
REMARK   55  A    between atoms: _168  and  _169
REMARK   56  A    between atoms: _172  and  _174
REMARK   57  A    between atoms: _174  and  _175
REMARK   58  A    between atoms: _174  and  _177
REMARK   59  A    between atoms: _177  and  _178
REMARK   60  A    between atoms: _181  and  _183
REMARK   61  A    between atoms: _183  and  _184
REMARK   62  A    between atoms: _183  and  _186
REMARK   63  A    between atoms: _186  and  _187
REMARK   64  A    between atoms: _188  and  ZN_412
REMARK   65  A    between atoms: _192  and  _194
REMARK   66  A    between atoms: _194  and  _195
REMARK   67  A    between atoms: _194  and  _197
REMARK   68  A    between atoms: _197  and  _198
REMARK   69  A    between atoms: _201  and  _203
REMARK   70  A    between atoms: _203  and  _204
REMARK   71  A    between atoms: _203  and  _206
REMARK   72  A    between atoms: _209  and  _211
REMARK   73  A    between atoms: _211  and  _212
REMARK   74  A    between atoms: _211  and  _214
REMARK   75  A    between atoms: _214  and  _215
REMARK   76  A    between atoms: _220  and  _222
REMARK   77  A    between atoms: _222  and  _223
REMARK   78  A    between atoms: _222  and  _225
REMARK   79  A    between atoms: _225  and  _226
REMARK   80  A    between atoms: _236  and  _238
REMARK   81  A    between atoms: _238  and  _239
REMARK   82  A    between atoms: _238  and  _241
REMARK   83  A    between atoms: _241  and  _242
REMARK   84  A    between atoms: _248  and  _250
REMARK   85  A    between atoms: _250  and  _251
REMARK   86  A    between atoms: _250  and  _253
REMARK   87  A    between atoms: _256  and  _258
REMARK   88  A    between atoms: _258  and  _259
REMARK   89  A    between atoms: _258  and  _261
REMARK   90  A    between atoms: _261  and  _262
REMARK   91  A    between atoms: _265  and  _267
REMARK   92  A    between atoms: _267  and  _268
REMARK   93  A    between atoms: _271  and  _273
REMARK   94  A    between atoms: _273  and  _274
REMARK   95  A    between atoms: _273  and  _276
REMARK   96  A    between atoms: _279  and  _281
REMARK   97  A    between atoms: _281  and  _282
REMARK   98  A    between atoms: _281  and  _284
REMARK   99  A    between atoms: _284  and  _285
REMARK  100  A    between atoms: _288  and  _290
REMARK  101  A    between atoms: _290  and  _291
REMARK  102  A    between atoms: _293  and  _295
REMARK  103  A    between atoms: _295  and  _296
REMARK  104  A    between atoms: _295  and  _298
REMARK  105  A    between atoms: _298  and  _299
REMARK  106  A    between atoms: _301  and  _303
REMARK  107  A    between atoms: _303  and  _304
REMARK  108  A    between atoms: _303  and  _306
REMARK  109  A    between atoms: _306  and  _307
REMARK  110  A    between atoms: _310  and  _312
REMARK  111  A    between atoms: _312  and  _313
REMARK  112  A    between atoms: _312  and  _315
REMARK  113  A    between atoms: _315  and  _316
REMARK  114  A    between atoms: _319  and  _321
REMARK  115  A    between atoms: _321  and  _322
REMARK  116  A    between atoms: _321  and  _324
REMARK  117  A    between atoms: _324  and  _325
REMARK  118  A    between atoms: _329  and  _330
REMARK  119  A    between atoms: _336  and  _337
REMARK  120  A    between atoms: _342  and  _344
REMARK  121  A    between atoms: _344  and  _345
REMARK  122  A    between atoms: _344  and  _347
REMARK  123  A    between atoms: _347  and  _348
REMARK  124  A    between atoms: _351  and  _353
REMARK  125  A    between atoms: _353  and  _354
REMARK  126  A    between atoms: _353  and  _356
REMARK  127  A    between atoms: _356  and  _357
REMARK  128  A    between atoms: _360  and  _362
REMARK  129  A    between atoms: _362  and  _363
REMARK  130  A    between atoms: _362  and  _365
REMARK  131  A    between atoms: _368  and  _370
REMARK  132  A    between atoms: _370  and  _371
REMARK  133  A    between atoms: _370  and  _373
REMARK  134  A    between atoms: _373  and  _374
REMARK  135  A    between atoms: _384  and  _386
REMARK  136  A    between atoms: _386  and  _387
REMARK  137  A    between atoms: _386  and  _389
REMARK  138  A    between atoms: _389  and  _390
REMARK  139  A    between atoms: _395  and  _397
REMARK  140  A    between atoms: _397  and  _398
REMARK  141  A    between atoms: _397  and  _400
REMARK  142  A    between atoms: _400  and  _401
REMARK  143  A    between atoms: _401  and  _402
REMARK  144  A    between atoms: _402  and  _403
REMARK                            x       y       z     vdW  Elec       q    Type
REMARK                         _______ _______ _______ _____ _____    ______ ____
ROOT
ATOM      1  O   HOH     1      -0.337   3.958   7.738  0.00  0.00    +0.000 OA
ENDROOT
TORSDOF 0
REMARK  Name = ../refined-set-2016/4xe1/4xe1_pocket.pdb
REMARK  144 active torsions:
REMARK  status: ('A' for Active; 'I' for Inactive)
REMARK    1  A    between atoms: _1  and  _3
REMARK    2  A    between atoms: _3  and  _4
REMARK    3  A    between atoms: _3  and  _6
REMARK    4  A    between atoms: _6  and  _7
REMARK    5  A    between atoms: _17  and  _19
REMARK    6  A    between atoms: _19  and  _20
REMARK    7  A    between atoms: _19  and  _22
REMARK    8  A    between atoms: _22  and  _23
REMARK    9  A    between atoms: _28  and  _29
REMARK   10  A    between atoms: _31  and  _33
REMARK   11  A    between atoms: _33  and  _34
REMARK   12  A    between atoms: _33  and  _36
REMARK   13  A    between atoms: _36  and  _37
REMARK   14  A    between atoms: _40  and  _41
REMARK   15  A    between atoms: _46  and  _48
REMARK   16  A    between atoms: _48  and  _49
REMARK   17  A    between atoms: _48  and  _51
REMARK   18  A    between atoms: _51  and  _52
REMARK   19  A    between atoms: _57  and  _59
REMARK   20  A    between atoms: _59  and  _60
REMARK   21  A    between atoms: _63  and  _65
REMARK   22  A    between atoms: _65  and  _66
REMARK   23  A    between atoms: _65  and  _68
REMARK   24  A    between atoms: _68  and  _69
REMARK   25  A    between atoms: _74  and  _76
REMARK   26  A    between atoms: _76  and  _77
REMARK   27  A    between atoms: _76  and  _79
REMARK   28  A    between atoms: _79  and  _80
REMARK   29  A    between atoms: _83  and  _85
REMARK   30  A    between atoms: _85  and  _86
REMARK   31  A    between atoms: _85  and  _88
REMARK   32  A    between atoms: _88  and  _89
REMARK   33  A    between atoms: _89  and  _90
REMARK   34  A    between atoms: _95  and  _97
REMARK   35  A    between atoms: _97  and  _98
REMARK   36  A    between atoms: _97  and  _100
REMARK   37  A    between atoms: _100  and  _101
REMARK   38  A    between atoms: _107  and  _109
REMARK   39  A    between atoms: _120  and  _123
REMARK   40  A    between atoms: _123  and  _124
REMARK   41  A    between atoms: _132  and  _133
REMARK   42  A    between atoms: _141  and  _143
REMARK   43  A    between atoms: _143  and  _144
REMARK   44  A    between atoms: _143  and  _146
REMARK   45  A    between atoms: _146  and  _147
REMARK   46  A    between atoms: _147  and  _148
REMARK   47  A    between atoms: _151  and  _153
REMARK   48  A    between atoms: _153  and  _154
REMARK   49  A    between atoms: _153  and  _156
REMARK   50  A    between atoms: _156  and  _157
REMARK   51  A    between atoms: _162  and  _164
REMARK   52  A    between atoms: _164  and  _165
REMARK   53  A    between atoms: _164  and  _167
REMARK   54  A    between atoms: _167  and  _168
REMARK   55  A    between atoms: _168  and  _169
REMARK   56  A    between atoms: _172  and  _174
REMARK   57  A    between atoms: _174  and  _175
REMARK   58  A    between atoms: _174  and  _177
REMARK   59  A    between atoms: _177  and  _178
REMARK   60  A    between atoms: _181  and  _183
REMARK   61  A    between atoms: _183  and  _184
REMARK   62  A    between atoms: _183  and  _186
REMARK   63  A    between atoms: _186  and  _187
REMARK   64  A    between atoms: _188  and  ZN_412
REMARK   65  A    between atoms: _192  and  _194
REMARK   66  A    between atoms: _194  and  _195
REMARK   67  A    between atoms: _194  and  _197
REMARK   68  A    between atoms: _197  and  _198
REMARK   69  A    between atoms: _201  and  _203
REMARK   70  A    between atoms: _203  and  _204
REMARK   71  A    between atoms: _203  and  _206
REMARK   72  A    between atoms: _209  and  _211
REMARK   73  A    between atoms: _211  and  _212
REMARK   74  A    between atoms: _211  and  _214
REMARK   75  A    between atoms: _214  and  _215
REMARK   76  A    between atoms: _220  and  _222
REMARK   77  A    between atoms: _222  and  _223
REMARK   78  A    between atoms: _222  and  _225
REMARK   79  A    between atoms: _225  and  _226
REMARK   80  A    between atoms: _236  and  _238
REMARK   81  A    between atoms: _238  and  _239
REMARK   82  A    between atoms: _238  and  _241
REMARK   83  A    between atoms: _241  and  _242
REMARK   84  A    between atoms: _248  and  _250
REMARK   85  A    between atoms: _250  and  _251
REMARK   86  A    between atoms: _250  and  _253
REMARK   87  A    between atoms: _256  and  _258
REMARK   88  A    between atoms: _258  and  _259
REMARK   89  A    between atoms: _258  and  _261
REMARK   90  A    between atoms: _261  and  _262
REMARK   91  A    between atoms: _265  and  _267
REMARK   92  A    between atoms: _267  and  _268
REMARK   93  A    between atoms: _271  and  _273
REMARK   94  A    between atoms: _273  and  _274
REMARK   95  A    between atoms: _273  and  _276
REMARK   96  A    between atoms: _279  and  _281
REMARK   97  A    between atoms: _281  and  _282
REMARK   98  A    between atoms: _281  and  _284
REMARK   99  A    between atoms: _284  and  _285
REMARK  100  A    between atoms: _288  and  _290
REMARK  101  A    between atoms: _290  and  _291
REMARK  102  A    between atoms: _293  and  _295
REMARK  103  A    between atoms: _295  and  _296
REMARK  104  A    between atoms: _295  and  _298
REMARK  105  A    between atoms: _298  and  _299
REMARK  106  A    between atoms: _301  and  _303
REMARK  107  A    between atoms: _303  and  _304
REMARK  108  A    between atoms: _303  and  _306
REMARK  109  A    between atoms: _306  and  _307
REMARK  110  A    between atoms: _310  and  _312
REMARK  111  A    between atoms: _312  and  _313
REMARK  112  A    between atoms: _312  and  _315
REMARK  113  A    between atoms: _315  and  _316
REMARK  114  A    between atoms: _319  and  _321
REMARK  115  A    between atoms: _321  and  _322
REMARK  116  A    between atoms: _321  and  _324
REMARK  117  A    between atoms: _324  and  _325
REMARK  118  A    between atoms: _329  and  _330
REMARK  119  A    between atoms: _336  and  _337
REMARK  120  A    between atoms: _342  and  _344
REMARK  121  A    between atoms: _344  and  _345
REMARK  122  A    between atoms: _344  and  _347
REMARK  123  A    between atoms: _347  and  _348
REMARK  124  A    between atoms: _351  and  _353
REMARK  125  A    between atoms: _353  and  _354
REMARK  126  A    between atoms: _353  and  _356
REMARK  127  A    between atoms: _356  and  _357
REMARK  128  A    between atoms: _360  and  _362
REMARK  129  A    between atoms: _362  and  _363
REMARK  130  A    between atoms: _362  and  _365
REMARK  131  A    between atoms: _368  and  _370
REMARK  132  A    between atoms: _370  and  _371
REMARK  133  A    between atoms: _370  and  _373
REMARK  134  A    between atoms: _373  and  _374
REMARK  135  A    between atoms: _384  and  _386
REMARK  136  A    between atoms: _386  and  _387
REMARK  137  A    between atoms: _386  and  _389
REMARK  138  A    between atoms: _389  and  _390
REMARK  139  A    between atoms: _395  and  _397
REMARK  140  A    between atoms: _397  and  _398
REMARK  141  A    between atoms: _397  and  _400
REMARK  142  A    between atoms: _400  and  _401
REMARK  143  A    between atoms: _401  and  _402
REMARK  144  A    between atoms: _402  and  _403
REMARK                            x       y       z     vdW  Elec       q    Type
REMARK                         _______ _______ _______ _____ _____    ______ ____
ROOT
ATOM      1  O   HOH     1      -2.388  -3.447  11.358  0.00  0.00    +0.000 OA
ENDROOT
TORSDOF 0
REMARK  Name = ../refined-set-2016/4xe1/4xe1_pocket.pdb
REMARK  144 active torsions:
REMARK  status: ('A' for Active; 'I' for Inactive)
REMARK    1  A    between atoms: _1  and  _3
REMARK    2  A    between atoms: _3  and  _4
REMARK    3  A    between atoms: _3  and  _6
REMARK    4  A    between atoms: _6  and  _7
REMARK    5  A    between atoms: _17  and  _19
REMARK    6  A    between atoms: _19  and  _20
REMARK    7  A    between atoms: _19  and  _22
REMARK    8  A    between atoms: _22  and  _23
REMARK    9  A    between atoms: _28  and  _29
REMARK   10  A    between atoms: _31  and  _33
REMARK   11  A    between atoms: _33  and  _34
REMARK   12  A    between atoms: _33  and  _36
REMARK   13  A    between atoms: _36  and  _37
REMARK   14  A    between atoms: _40  and  _41
REMARK   15  A    between atoms: _46  and  _48
REMARK   16  A    between atoms: _48  and  _49
REMARK   17  A    between atoms: _48  and  _51
REMARK   18  A    between atoms: _51  and  _52
REMARK   19  A    between atoms: _57  and  _59
REMARK   20  A    between atoms: _59  and  _60
REMARK   21  A    between atoms: _63  and  _65
REMARK   22  A    between atoms: _65  and  _66
REMARK   23  A    between atoms: _65  and  _68
REMARK   24  A    between atoms: _68  and  _69
REMARK   25  A    between atoms: _74  and  _76
REMARK   26  A    between atoms: _76  and  _77
REMARK   27  A    between atoms: _76  and  _79
REMARK   28  A    between atoms: _79  and  _80
REMARK   29  A    between atoms: _83  and  _85
REMARK   30  A    between atoms: _85  and  _86
REMARK   31  A    between atoms: _85  and  _88
REMARK   32  A    between atoms: _88  and  _89
REMARK   33  A    between atoms: _89  and  _90
REMARK   34  A    between atoms: _95  and  _97
REMARK   35  A    between atoms: _97  and  _98
REMARK   36  A    between atoms: _97  and  _100
REMARK   37  A    between atoms: _100  and  _101
REMARK   38  A    between atoms: _107  and  _109
REMARK   39  A    between atoms: _120  and  _123
REMARK   40  A    between atoms: _123  and  _124
REMARK   41  A    between atoms: _132  and  _133
REMARK   42  A    between atoms: _141  and  _143
REMARK   43  A    between atoms: _143  and  _144
REMARK   44  A    between atoms: _143  and  _146
REMARK   45  A    between atoms: _146  and  _147
REMARK   46  A    between atoms: _147  and  _148
REMARK   47  A    between atoms: _151  and  _153
REMARK   48  A    between atoms: _153  and  _154
REMARK   49  A    between atoms: _153  and  _156
REMARK   50  A    between atoms: _156  and  _157
REMARK   51  A    between atoms: _162  and  _164
REMARK   52  A    between atoms: _164  and  _165
REMARK   53  A    between atoms: _164  and  _167
REMARK   54  A    between atoms: _167  and  _168
REMARK   55  A    between atoms: _168  and  _169
REMARK   56  A    between atoms: _172  and  _174
REMARK   57  A    between atoms: _174  and  _175
REMARK   58  A    between atoms: _174  and  _177
REMARK   59  A    between atoms: _177  and  _178
REMARK   60  A    between atoms: _181  and  _183
REMARK   61  A    between atoms: _183  and  _184
REMARK   62  A    between atoms: _183  and  _186
REMARK   63  A    between atoms: _186  and  _187
REMARK   64  A    between atoms: _188  and  ZN_412
REMARK   65  A    between atoms: _192  and  _194
REMARK   66  A    between atoms: _194  and  _195
REMARK   67  A    between atoms: _194  and  _197
REMARK   68  A    between atoms: _197  and  _198
REMARK   69  A    between atoms: _201  and  _203
REMARK   70  A    between atoms: _203  and  _204
REMARK   71  A    between atoms: _203  and  _206
REMARK   72  A    between atoms: _209  and  _211
REMARK   73  A    between atoms: _211  and  _212
REMARK   74  A    between atoms: _211  and  _214
REMARK   75  A    between atoms: _214  and  _215
REMARK   76  A    between atoms: _220  and  _222
REMARK   77  A    between atoms: _222  and  _223
REMARK   78  A    between atoms: _222  and  _225
REMARK   79  A    between atoms: _225  and  _226
REMARK   80  A    between atoms: _236  and  _238
REMARK   81  A    between atoms: _238  and  _239
REMARK   82  A    between atoms: _238  and  _241
REMARK   83  A    between atoms: _241  and  _242
REMARK   84  A    between atoms: _248  and  _250
REMARK   85  A    between atoms: _250  and  _251
REMARK   86  A    between atoms: _250  and  _253
REMARK   87  A    between atoms: _256  and  _258
REMARK   88  A    between atoms: _258  and  _259
REMARK   89  A    between atoms: _258  and  _261
REMARK   90  A    between atoms: _261  and  _262
REMARK   91  A    between atoms: _265  and  _267
REMARK   92  A    between atoms: _267  and  _268
REMARK   93  A    between atoms: _271  and  _273
REMARK   94  A    between atoms: _273  and  _274
REMARK   95  A    between atoms: _273  and  _276
REMARK   96  A    between atoms: _279  and  _281
REMARK   97  A    between atoms: _281  and  _282
REMARK   98  A    between atoms: _281  and  _284
REMARK   99  A    between atoms: _284  and  _285
REMARK  100  A    between atoms: _288  and  _290
REMARK  101  A    between atoms: _290  and  _291
REMARK  102  A    between atoms: _293  and  _295
REMARK  103  A    between atoms: _295  and  _296
REMARK  104  A    between atoms: _295  and  _298
REMARK  105  A    between atoms: _298  and  _299
REMARK  106  A    between atoms: _301  and  _303
REMARK  107  A    between atoms: _303  and  _304
REMARK  108  A    between atoms: _303  and  _306
REMARK  109  A    between atoms: _306  and  _307
REMARK  110  A    between atoms: _310  and  _312
REMARK  111  A    between atoms: _312  and  _313
REMARK  112  A    between atoms: _312  and  _315
REMARK  113  A    between atoms: _315  and  _316
REMARK  114  A    between atoms: _319  and  _321
REMARK  115  A    between atoms: _321  and  _322
REMARK  116  A    between atoms: _321  and  _324
REMARK  117  A    between atoms: _324  and  _325
REMARK  118  A    between atoms: _329  and  _330
REMARK  119  A    between atoms: _336  and  _337
REMARK  120  A    between atoms: _342  and  _344
REMARK  121  A    between atoms: _344  and  _345
REMARK  122  A    between atoms: _344  and  _347
REMARK  123  A    between atoms: _347  and  _348
REMARK  124  A    between atoms: _351  and  _353
REMARK  125  A    between atoms: _353  and  _354
REMARK  126  A    between atoms: _353  and  _356
REMARK  127  A    between atoms: _356  and  _357
REMARK  128  A    between atoms: _360  and  _362
REMARK  129  A    between atoms: _362  and  _363
REMARK  130  A    between atoms: _362  and  _365
REMARK  131  A    between atoms: _368  and  _370
REMARK  132  A    between atoms: _370  and  _371
REMARK  133  A    between atoms: _370  and  _373
REMARK  134  A    between atoms: _373  and  _374
REMARK  135  A    between atoms: _384  and  _386
REMARK  136  A    between atoms: _386  and  _387
REMARK  137  A    between atoms: _386  and  _389
REMARK  138  A    between atoms: _389  and  _390
REMARK  139  A    between atoms: _395  and  _397
REMARK  140  A    between atoms: _397  and  _398
REMARK  141  A    between atoms: _397  and  _400
REMARK  142  A    between atoms: _400  and  _401
REMARK  143  A    between atoms: _401  and  _402
REMARK  144  A    between atoms: _402  and  _403
REMARK                            x       y       z     vdW  Elec       q    Type
REMARK                         _______ _______ _______ _____ _____    ______ ____
ROOT
ATOM      1  O   HOH     1      -1.182  -4.241  15.721  0.00  0.00    +0.000 OA
ENDROOT
TORSDOF 0
REMARK  Name = ../refined-set-2016/4xe1/4xe1_pocket.pdb
REMARK  144 active torsions:
REMARK  status: ('A' for Active; 'I' for Inactive)
REMARK    1  A    between atoms: _1  and  _3
REMARK    2  A    between atoms: _3  and  _4
REMARK    3  A    between atoms: _3  and  _6
REMARK    4  A    between atoms: _6  and  _7
REMARK    5  A    between atoms: _17  and  _19
REMARK    6  A    between atoms: _19  and  _20
REMARK    7  A    between atoms: _19  and  _22
REMARK    8  A    between atoms: _22  and  _23
REMARK    9  A    between atoms: _28  and  _29
REMARK   10  A    between atoms: _31  and  _33
REMARK   11  A    between atoms: _33  and  _34
REMARK   12  A    between atoms: _33  and  _36
REMARK   13  A    between atoms: _36  and  _37
REMARK   14  A    between atoms: _40  and  _41
REMARK   15  A    between atoms: _46  and  _48
REMARK   16  A    between atoms: _48  and  _49
REMARK   17  A    between atoms: _48  and  _51
REMARK   18  A    between atoms: _51  and  _52
REMARK   19  A    between atoms: _57  and  _59
REMARK   20  A    between atoms: _59  and  _60
REMARK   21  A    between atoms: _63  and  _65
REMARK   22  A    between atoms: _65  and  _66
REMARK   23  A    between atoms: _65  and  _68
REMARK   24  A    between atoms: _68  and  _69
REMARK   25  A    between atoms: _74  and  _76
REMARK   26  A    between atoms: _76  and  _77
REMARK   27  A    between atoms: _76  and  _79
REMARK   28  A    between atoms: _79  and  _80
REMARK   29  A    between atoms: _83  and  _85
REMARK   30  A    between atoms: _85  and  _86
REMARK   31  A    between atoms: _85  and  _88
REMARK   32  A    between atoms: _88  and  _89
REMARK   33  A    between atoms: _89  and  _90
REMARK   34  A    between atoms: _95  and  _97
REMARK   35  A    between atoms: _97  and  _98
REMARK   36  A    between atoms: _97  and  _100
REMARK   37  A    between atoms: _100  and  _101
REMARK   38  A    between atoms: _107  and  _109
REMARK   39  A    between atoms: _120  and  _123
REMARK   40  A    between atoms: _123  and  _124
REMARK   41  A    between atoms: _132  and  _133
REMARK   42  A    between atoms: _141  and  _143
REMARK   43  A    between atoms: _143  and  _144
REMARK   44  A    between atoms: _143  and  _146
REMARK   45  A    between atoms: _146  and  _147
REMARK   46  A    between atoms: _147  and  _148
REMARK   47  A    between atoms: _151  and  _153
REMARK   48  A    between atoms: _153  and  _154
REMARK   49  A    between atoms: _153  and  _156
REMARK   50  A    between atoms: _156  and  _157
REMARK   51  A    between atoms: _162  and  _164
REMARK   52  A    between atoms: _164  and  _165
REMARK   53  A    between atoms: _164  and  _167
REMARK   54  A    between atoms: _167  and  _168
REMARK   55  A    between atoms: _168  and  _169
REMARK   56  A    between atoms: _172  and  _174
REMARK   57  A    between atoms: _174  and  _175
REMARK   58  A    between atoms: _174  and  _177
REMARK   59  A    between atoms: _177  and  _178
REMARK   60  A    between atoms: _181  and  _183
REMARK   61  A    between atoms: _183  and  _184
REMARK   62  A    between atoms: _183  and  _186
REMARK   63  A    between atoms: _186  and  _187
REMARK   64  A    between atoms: _188  and  ZN_412
REMARK   65  A    between atoms: _192  and  _194
REMARK   66  A    between atoms: _194  and  _195
REMARK   67  A    between atoms: _194  and  _197
REMARK   68  A    between atoms: _197  and  _198
REMARK   69  A    between atoms: _201  and  _203
REMARK   70  A    between atoms: _203  and  _204
REMARK   71  A    between atoms: _203  and  _206
REMARK   72  A    between atoms: _209  and  _211
REMARK   73  A    between atoms: _211  and  _212
REMARK   74  A    between atoms: _211  and  _214
REMARK   75  A    between atoms: _214  and  _215
REMARK   76  A    between atoms: _220  and  _222
REMARK   77  A    between atoms: _222  and  _223
REMARK   78  A    between atoms: _222  and  _225
REMARK   79  A    between atoms: _225  and  _226
REMARK   80  A    between atoms: _236  and  _238
REMARK   81  A    between atoms: _238  and  _239
REMARK   82  A    between atoms: _238  and  _241
REMARK   83  A    between atoms: _241  and  _242
REMARK   84  A    between atoms: _248  and  _250
REMARK   85  A    between atoms: _250  and  _251
REMARK   86  A    between atoms: _250  and  _253
REMARK   87  A    between atoms: _256  and  _258
REMARK   88  A    between atoms: _258  and  _259
REMARK   89  A    between atoms: _258  and  _261
REMARK   90  A    between atoms: _261  and  _262
REMARK   91  A    between atoms: _265  and  _267
REMARK   92  A    between atoms: _267  and  _268
REMARK   93  A    between atoms: _271  and  _273
REMARK   94  A    between atoms: _273  and  _274
REMARK   95  A    between atoms: _273  and  _276
REMARK   96  A    between atoms: _279  and  _281
REMARK   97  A    between atoms: _281  and  _282
REMARK   98  A    between atoms: _281  and  _284
REMARK   99  A    between atoms: _284  and  _285
REMARK  100  A    between atoms: _288  and  _290
REMARK  101  A    between atoms: _290  and  _291
REMARK  102  A    between atoms: _293  and  _295
REMARK  103  A    between atoms: _295  and  _296
REMARK  104  A    between atoms: _295  and  _298
REMARK  105  A    between atoms: _298  and  _299
REMARK  106  A    between atoms: _301  and  _303
REMARK  107  A    between atoms: _303  and  _304
REMARK  108  A    between atoms: _303  and  _306
REMARK  109  A    between atoms: _306  and  _307
REMARK  110  A    between atoms: _310  and  _312
REMARK  111  A    between atoms: _312  and  _313
REMARK  112  A    between atoms: _312  and  _315
REMARK  113  A    between atoms: _315  and  _316
REMARK  114  A    between atoms: _319  and  _321
REMARK  115  A    between atoms: _321  and  _322
REMARK  116  A    between atoms: _321  and  _324
REMARK  117  A    between atoms: _324  and  _325
REMARK  118  A    between atoms: _329  and  _330
REMARK  119  A    between atoms: _336  and  _337
REMARK  120  A    between atoms: _342  and  _344
REMARK  121  A    between atoms: _344  and  _345
REMARK  122  A    between atoms: _344  and  _347
REMARK  123  A    between atoms: _347  and  _348
REMARK  124  A    between atoms: _351  and  _353
REMARK  125  A    between atoms: _353  and  _354
REMARK  126  A    between atoms: _353  and  _356
REMARK  127  A    between atoms: _356  and  _357
REMARK  128  A    between atoms: _360  and  _362
REMARK  129  A    between atoms: _362  and  _363
REMARK  130  A    between atoms: _362  and  _365
REMARK  131  A    between atoms: _368  and  _370
REMARK  132  A    between atoms: _370  and  _371
REMARK  133  A    between atoms: _370  and  _373
REMARK  134  A    between atoms: _373  and  _374
REMARK  135  A    between atoms: _384  and  _386
REMARK  136  A    between atoms: _386  and  _387
REMARK  137  A    between atoms: _386  and  _389
REMARK  138  A    between atoms: _389  and  _390
REMARK  139  A    between atoms: _395  and  _397
REMARK  140  A    between atoms: _397  and  _398
REMARK  141  A    between atoms: _397  and  _400
REMARK  142  A    between atoms: _400  and  _401
REMARK  143  A    between atoms: _401  and  _402
REMARK  144  A    between atoms: _402  and  _403
REMARK                            x       y       z     vdW  Elec       q    Type
REMARK                         _______ _______ _______ _____ _____    ______ ____
ROOT
ATOM      1  O   HOH     1       0.586   4.285  12.135  0.00  0.00    +0.000 OA
ENDROOT
TORSDOF 0
REMARK  Name = ../refined-set-2016/4xe1/4xe1_pocket.pdb
REMARK  144 active torsions:
REMARK  status: ('A' for Active; 'I' for Inactive)
REMARK    1  A    between atoms: _1  and  _3
REMARK    2  A    between atoms: _3  and  _4
REMARK    3  A    between atoms: _3  and  _6
REMARK    4  A    between atoms: _6  and  _7
REMARK    5  A    between atoms: _17  and  _19
REMARK    6  A    between atoms: _19  and  _20
REMARK    7  A    between atoms: _19  and  _22
REMARK    8  A    between atoms: _22  and  _23
REMARK    9  A    between atoms: _28  and  _29
REMARK   10  A    between atoms: _31  and  _33
REMARK   11  A    between atoms: _33  and  _34
REMARK   12  A    between atoms: _33  and  _36
REMARK   13  A    between atoms: _36  and  _37
REMARK   14  A    between atoms: _40  and  _41
REMARK   15  A    between atoms: _46  and  _48
REMARK   16  A    between atoms: _48  and  _49
REMARK   17  A    between atoms: _48  and  _51
REMARK   18  A    between atoms: _51  and  _52
REMARK   19  A    between atoms: _57  and  _59
REMARK   20  A    between atoms: _59  and  _60
REMARK   21  A    between atoms: _63  and  _65
REMARK   22  A    between atoms: _65  and  _66
REMARK   23  A    between atoms: _65  and  _68
REMARK   24  A    between atoms: _68  and  _69
REMARK   25  A    between atoms: _74  and  _76
REMARK   26  A    between atoms: _76  and  _77
REMARK   27  A    between atoms: _76  and  _79
REMARK   28  A    between atoms: _79  and  _80
REMARK   29  A    between atoms: _83  and  _85
REMARK   30  A    between atoms: _85  and  _86
REMARK   31  A    between atoms: _85  and  _88
REMARK   32  A    between atoms: _88  and  _89
REMARK   33  A    between atoms: _89  and  _90
REMARK   34  A    between atoms: _95  and  _97
REMARK   35  A    between atoms: _97  and  _98
REMARK   36  A    between atoms: _97  and  _100
REMARK   37  A    between atoms: _100  and  _101
REMARK   38  A    between atoms: _107  and  _109
REMARK   39  A    between atoms: _120  and  _123
REMARK   40  A    between atoms: _123  and  _124
REMARK   41  A    between atoms: _132  and  _133
REMARK   42  A    between atoms: _141  and  _143
REMARK   43  A    between atoms: _143  and  _144
REMARK   44  A    between atoms: _143  and  _146
REMARK   45  A    between atoms: _146  and  _147
REMARK   46  A    between atoms: _147  and  _148
REMARK   47  A    between atoms: _151  and  _153
REMARK   48  A    between atoms: _153  and  _154
REMARK   49  A    between atoms: _153  and  _156
REMARK   50  A    between atoms: _156  and  _157
REMARK   51  A    between atoms: _162  and  _164
REMARK   52  A    between atoms: _164  and  _165
REMARK   53  A    between atoms: _164  and  _167
REMARK   54  A    between atoms: _167  and  _168
REMARK   55  A    between atoms: _168  and  _169
REMARK   56  A    between atoms: _172  and  _174
REMARK   57  A    between atoms: _174  and  _175
REMARK   58  A    between atoms: _174  and  _177
REMARK   59  A    between atoms: _177  and  _178
REMARK   60  A    between atoms: _181  and  _183
REMARK   61  A    between atoms: _183  and  _184
REMARK   62  A    between atoms: _183  and  _186
REMARK   63  A    between atoms: _186  and  _187
REMARK   64  A    between atoms: _188  and  ZN_412
REMARK   65  A    between atoms: _192  and  _194
REMARK   66  A    between atoms: _194  and  _195
REMARK   67  A    between atoms: _194  and  _197
REMARK   68  A    between atoms: _197  and  _198
REMARK   69  A    between atoms: _201  and  _203
REMARK   70  A    between atoms: _203  and  _204
REMARK   71  A    between atoms: _203  and  _206
REMARK   72  A    between atoms: _209  and  _211
REMARK   73  A    between atoms: _211  and  _212
REMARK   74  A    between atoms: _211  and  _214
REMARK   75  A    between atoms: _214  and  _215
REMARK   76  A    between atoms: _220  and  _222
REMARK   77  A    between atoms: _222  and  _223
REMARK   78  A    between atoms: _222  and  _225
REMARK   79  A    between atoms: _225  and  _226
REMARK   80  A    between atoms: _236  and  _238
REMARK   81  A    between atoms: _238  and  _239
REMARK   82  A    between atoms: _238  and  _241
REMARK   83  A    between atoms: _241  and  _242
REMARK   84  A    between atoms: _248  and  _250
REMARK   85  A    between atoms: _250  and  _251
REMARK   86  A    between atoms: _250  and  _253
REMARK   87  A    between atoms: _256  and  _258
REMARK   88  A    between atoms: _258  and  _259
REMARK   89  A    between atoms: _258  and  _261
REMARK   90  A    between atoms: _261  and  _262
REMARK   91  A    between atoms: _265  and  _267
REMARK   92  A    between atoms: _267  and  _268
REMARK   93  A    between atoms: _271  and  _273
REMARK   94  A    between atoms: _273  and  _274
REMARK   95  A    between atoms: _273  and  _276
REMARK   96  A    between atoms: _279  and  _281
REMARK   97  A    between atoms: _281  and  _282
REMARK   98  A    between atoms: _281  and  _284
REMARK   99  A    between atoms: _284  and  _285
REMARK  100  A    between atoms: _288  and  _290
REMARK  101  A    between atoms: _290  and  _291
REMARK  102  A    between atoms: _293  and  _295
REMARK  103  A    between atoms: _295  and  _296
REMARK  104  A    between atoms: _295  and  _298
REMARK  105  A    between atoms: _298  and  _299
REMARK  106  A    between atoms: _301  and  _303
REMARK  107  A    between atoms: _303  and  _304
REMARK  108  A    between atoms: _303  and  _306
REMARK  109  A    between atoms: _306  and  _307
REMARK  110  A    between atoms: _310  and  _312
REMARK  111  A    between atoms: _312  and  _313
REMARK  112  A    between atoms: _312  and  _315
REMARK  113  A    between atoms: _315  and  _316
REMARK  114  A    between atoms: _319  and  _321
REMARK  115  A    between atoms: _321  and  _322
REMARK  116  A    between atoms: _321  and  _324
REMARK  117  A    between atoms: _324  and  _325
REMARK  118  A    between atoms: _329  and  _330
REMARK  119  A    between atoms: _336  and  _337
REMARK  120  A    between atoms: _342  and  _344
REMARK  121  A    between atoms: _344  and  _345
REMARK  122  A    between atoms: _344  and  _347
REMARK  123  A    between atoms: _347  and  _348
REMARK  124  A    between atoms: _351  and  _353
REMARK  125  A    between atoms: _353  and  _354
REMARK  126  A    between atoms: _353  and  _356
REMARK  127  A    between atoms: _356  and  _357
REMARK  128  A    between atoms: _360  and  _362
REMARK  129  A    between atoms: _362  and  _363
REMARK  130  A    between atoms: _362  and  _365
REMARK  131  A    between atoms: _368  and  _370
REMARK  132  A    between atoms: _370  and  _371
REMARK  133  A    between atoms: _370  and  _373
REMARK  134  A    between atoms: _373  and  _374
REMARK  135  A    between atoms: _384  and  _386
REMARK  136  A    between atoms: _386  and  _387
REMARK  137  A    between atoms: _386  and  _389
REMARK  138  A    between atoms: _389  and  _390
REMARK  139  A    between atoms: _395  and  _397
REMARK  140  A    between atoms: _397  and  _398
REMARK  141  A    between atoms: _397  and  _400
REMARK  142  A    between atoms: _400  and  _401
REMARK  143  A    between atoms: _401  and  _402
REMARK  144  A    between atoms: _402  and  _403
REMARK                            x       y       z     vdW  Elec       q    Type
REMARK                         _______ _______ _______ _____ _____    ______ ____
ROOT
ATOM      1  O   HOH     1      -0.982   1.145  11.224  0.00  0.00    +0.000 OA
ENDROOT
TORSDOF 0
REMARK  Name = ../refined-set-2016/4xe1/4xe1_pocket.pdb
REMARK  144 active torsions:
REMARK  status: ('A' for Active; 'I' for Inactive)
REMARK    1  A    between atoms: _1  and  _3
REMARK    2  A    between atoms: _3  and  _4
REMARK    3  A    between atoms: _3  and  _6
REMARK    4  A    between atoms: _6  and  _7
REMARK    5  A    between atoms: _17  and  _19
REMARK    6  A    between atoms: _19  and  _20
REMARK    7  A    between atoms: _19  and  _22
REMARK    8  A    between atoms: _22  and  _23
REMARK    9  A    between atoms: _28  and  _29
REMARK   10  A    between atoms: _31  and  _33
REMARK   11  A    between atoms: _33  and  _34
REMARK   12  A    between atoms: _33  and  _36
REMARK   13  A    between atoms: _36  and  _37
REMARK   14  A    between atoms: _40  and  _41
REMARK   15  A    between atoms: _46  and  _48
REMARK   16  A    between atoms: _48  and  _49
REMARK   17  A    between atoms: _48  and  _51
REMARK   18  A    between atoms: _51  and  _52
REMARK   19  A    between atoms: _57  and  _59
REMARK   20  A    between atoms: _59  and  _60
REMARK   21  A    between atoms: _63  and  _65
REMARK   22  A    between atoms: _65  and  _66
REMARK   23  A    between atoms: _65  and  _68
REMARK   24  A    between atoms: _68  and  _69
REMARK   25  A    between atoms: _74  and  _76
REMARK   26  A    between atoms: _76  and  _77
REMARK   27  A    between atoms: _76  and  _79
REMARK   28  A    between atoms: _79  and  _80
REMARK   29  A    between atoms: _83  and  _85
REMARK   30  A    between atoms: _85  and  _86
REMARK   31  A    between atoms: _85  and  _88
REMARK   32  A    between atoms: _88  and  _89
REMARK   33  A    between atoms: _89  and  _90
REMARK   34  A    between atoms: _95  and  _97
REMARK   35  A    between atoms: _97  and  _98
REMARK   36  A    between atoms: _97  and  _100
REMARK   37  A    between atoms: _100  and  _101
REMARK   38  A    between atoms: _107  and  _109
REMARK   39  A    between atoms: _120  and  _123
REMARK   40  A    between atoms: _123  and  _124
REMARK   41  A    between atoms: _132  and  _133
REMARK   42  A    between atoms: _141  and  _143
REMARK   43  A    between atoms: _143  and  _144
REMARK   44  A    between atoms: _143  and  _146
REMARK   45  A    between atoms: _146  and  _147
REMARK   46  A    between atoms: _147  and  _148
REMARK   47  A    between atoms: _151  and  _153
REMARK   48  A    between atoms: _153  and  _154
REMARK   49  A    between atoms: _153  and  _156
REMARK   50  A    between atoms: _156  and  _157
REMARK   51  A    between atoms: _162  and  _164
REMARK   52  A    between atoms: _164  and  _165
REMARK   53  A    between atoms: _164  and  _167
REMARK   54  A    between atoms: _167  and  _168
REMARK   55  A    between atoms: _168  and  _169
REMARK   56  A    between atoms: _172  and  _174
REMARK   57  A    between atoms: _174  and  _175
REMARK   58  A    between atoms: _174  and  _177
REMARK   59  A    between atoms: _177  and  _178
REMARK   60  A    between atoms: _181  and  _183
REMARK   61  A    between atoms: _183  and  _184
REMARK   62  A    between atoms: _183  and  _186
REMARK   63  A    between atoms: _186  and  _187
REMARK   64  A    between atoms: _188  and  ZN_412
REMARK   65  A    between atoms: _192  and  _194
REMARK   66  A    between atoms: _194  and  _195
REMARK   67  A    between atoms: _194  and  _197
REMARK   68  A    between atoms: _197  and  _198
REMARK   69  A    between atoms: _201  and  _203
REMARK   70  A    between atoms: _203  and  _204
REMARK   71  A    between atoms: _203  and  _206
REMARK   72  A    between atoms: _209  and  _211
REMARK   73  A    between atoms: _211  and  _212
REMARK   74  A    between atoms: _211  and  _214
REMARK   75  A    between atoms: _214  and  _215
REMARK   76  A    between atoms: _220  and  _222
REMARK   77  A    between atoms: _222  and  _223
REMARK   78  A    between atoms: _222  and  _225
REMARK   79  A    between atoms: _225  and  _226
REMARK   80  A    between atoms: _236  and  _238
REMARK   81  A    between atoms: _238  and  _239
REMARK   82  A    between atoms: _238  and  _241
REMARK   83  A    between atoms: _241  and  _242
REMARK   84  A    between atoms: _248  and  _250
REMARK   85  A    between atoms: _250  and  _251
REMARK   86  A    between atoms: _250  and  _253
REMARK   87  A    between atoms: _256  and  _258
REMARK   88  A    between atoms: _258  and  _259
REMARK   89  A    between atoms: _258  and  _261
REMARK   90  A    between atoms: _261  and  _262
REMARK   91  A    between atoms: _265  and  _267
REMARK   92  A    between atoms: _267  and  _268
REMARK   93  A    between atoms: _271  and  _273
REMARK   94  A    between atoms: _273  and  _274
REMARK   95  A    between atoms: _273  and  _276
REMARK   96  A    between atoms: _279  and  _281
REMARK   97  A    between atoms: _281  and  _282
REMARK   98  A    between atoms: _281  and  _284
REMARK   99  A    between atoms: _284  and  _285
REMARK  100  A    between atoms: _288  and  _290
REMARK  101  A    between atoms: _290  and  _291
REMARK  102  A    between atoms: _293  and  _295
REMARK  103  A    between atoms: _295  and  _296
REMARK  104  A    between atoms: _295  and  _298
REMARK  105  A    between atoms: _298  and  _299
REMARK  106  A    between atoms: _301  and  _303
REMARK  107  A    between atoms: _303  and  _304
REMARK  108  A    between atoms: _303  and  _306
REMARK  109  A    between atoms: _306  and  _307
REMARK  110  A    between atoms: _310  and  _312
REMARK  111  A    between atoms: _312  and  _313
REMARK  112  A    between atoms: _312  and  _315
REMARK  113  A    between atoms: _315  and  _316
REMARK  114  A    between atoms: _319  and  _321
REMARK  115  A    between atoms: _321  and  _322
REMARK  116  A    between atoms: _321  and  _324
REMARK  117  A    between atoms: _324  and  _325
REMARK  118  A    between atoms: _329  and  _330
REMARK  119  A    between atoms: _336  and  _337
REMARK  120  A    between atoms: _342  and  _344
REMARK  121  A    between atoms: _344  and  _345
REMARK  122  A    between atoms: _344  and  _347
REMARK  123  A    between atoms: _347  and  _348
REMARK  124  A    between atoms: _351  and  _353
REMARK  125  A    between atoms: _353  and  _354
REMARK  126  A    between atoms: _353  and  _356
REMARK  127  A    between atoms: _356  and  _357
REMARK  128  A    between atoms: _360  and  _362
REMARK  129  A    between atoms: _362  and  _363
REMARK  130  A    between atoms: _362  and  _365
REMARK  131  A    between atoms: _368  and  _370
REMARK  132  A    between atoms: _370  and  _371
REMARK  133  A    between atoms: _370  and  _373
REMARK  134  A    between atoms: _373  and  _374
REMARK  135  A    between atoms: _384  and  _386
REMARK  136  A    between atoms: _386  and  _387
REMARK  137  A    between atoms: _386  and  _389
REMARK  138  A    between atoms: _389  and  _390
REMARK  139  A    between atoms: _395  and  _397
REMARK  140  A    between atoms: _397  and  _398
REMARK  141  A    between atoms: _397  and  _400
REMARK  142  A    between atoms: _400  and  _401
REMARK  143  A    between atoms: _401  and  _402
REMARK  144  A    between atoms: _402  and  _403
REMARK                            x       y       z     vdW  Elec       q    Type
REMARK                         _______ _______ _______ _____ _____    ______ ____
ROOT
ATOM      1  O   HOH     1      -8.374   7.498   8.251  0.00  0.00    +0.000 OA
ENDROOT
TORSDOF 0
REMARK  Name = ../refined-set-2016/4xe1/4xe1_pocket.pdb
REMARK  144 active torsions:
REMARK  status: ('A' for Active; 'I' for Inactive)
REMARK    1  A    between atoms: _1  and  _3
REMARK    2  A    between atoms: _3  and  _4
REMARK    3  A    between atoms: _3  and  _6
REMARK    4  A    between atoms: _6  and  _7
REMARK    5  A    between atoms: _17  and  _19
REMARK    6  A    between atoms: _19  and  _20
REMARK    7  A    between atoms: _19  and  _22
REMARK    8  A    between atoms: _22  and  _23
REMARK    9  A    between atoms: _28  and  _29
REMARK   10  A    between atoms: _31  and  _33
REMARK   11  A    between atoms: _33  and  _34
REMARK   12  A    between atoms: _33  and  _36
REMARK   13  A    between atoms: _36  and  _37
REMARK   14  A    between atoms: _40  and  _41
REMARK   15  A    between atoms: _46  and  _48
REMARK   16  A    between atoms: _48  and  _49
REMARK   17  A    between atoms: _48  and  _51
REMARK   18  A    between atoms: _51  and  _52
REMARK   19  A    between atoms: _57  and  _59
REMARK   20  A    between atoms: _59  and  _60
REMARK   21  A    between atoms: _63  and  _65
REMARK   22  A    between atoms: _65  and  _66
REMARK   23  A    between atoms: _65  and  _68
REMARK   24  A    between atoms: _68  and  _69
REMARK   25  A    between atoms: _74  and  _76
REMARK   26  A    between atoms: _76  and  _77
REMARK   27  A    between atoms: _76  and  _79
REMARK   28  A    between atoms: _79  and  _80
REMARK   29  A    between atoms: _83  and  _85
REMARK   30  A    between atoms: _85  and  _86
REMARK   31  A    between atoms: _85  and  _88
REMARK   32  A    between atoms: _88  and  _89
REMARK   33  A    between atoms: _89  and  _90
REMARK   34  A    between atoms: _95  and  _97
REMARK   35  A    between atoms: _97  and  _98
REMARK   36  A    between atoms: _97  and  _100
REMARK   37  A    between atoms: _100  and  _101
REMARK   38  A    between atoms: _107  and  _109
REMARK   39  A    between atoms: _120  and  _123
REMARK   40  A    between atoms: _123  and  _124
REMARK   41  A    between atoms: _132  and  _133
REMARK   42  A    between atoms: _141  and  _143
REMARK   43  A    between atoms: _143  and  _144
REMARK   44  A    between atoms: _143  and  _146
REMARK   45  A    between atoms: _146  and  _147
REMARK   46  A    between atoms: _147  and  _148
REMARK   47  A    between atoms: _151  and  _153
REMARK   48  A    between atoms: _153  and  _154
REMARK   49  A    between atoms: _153  and  _156
REMARK   50  A    between atoms: _156  and  _157
REMARK   51  A    between atoms: _162  and  _164
REMARK   52  A    between atoms: _164  and  _165
REMARK   53  A    between atoms: _164  and  _167
REMARK   54  A    between atoms: _167  and  _168
REMARK   55  A    between atoms: _168  and  _169
REMARK   56  A    between atoms: _172  and  _174
REMARK   57  A    between atoms: _174  and  _175
REMARK   58  A    between atoms: _174  and  _177
REMARK   59  A    between atoms: _177  and  _178
REMARK   60  A    between atoms: _181  and  _183
REMARK   61  A    between atoms: _183  and  _184
REMARK   62  A    between atoms: _183  and  _186
REMARK   63  A    between atoms: _186  and  _187
REMARK   64  A    between atoms: _188  and  ZN_412
REMARK   65  A    between atoms: _192  and  _194
REMARK   66  A    between atoms: _194  and  _195
REMARK   67  A    between atoms: _194  and  _197
REMARK   68  A    between atoms: _197  and  _198
REMARK   69  A    between atoms: _201  and  _203
REMARK   70  A    between atoms: _203  and  _204
REMARK   71  A    between atoms: _203  and  _206
REMARK   72  A    between atoms: _209  and  _211
REMARK   73  A    between atoms: _211  and  _212
REMARK   74  A    between atoms: _211  and  _214
REMARK   75  A    between atoms: _214  and  _215
REMARK   76  A    between atoms: _220  and  _222
REMARK   77  A    between atoms: _222  and  _223
REMARK   78  A    between atoms: _222  and  _225
REMARK   79  A    between atoms: _225  and  _226
REMARK   80  A    between atoms: _236  and  _238
REMARK   81  A    between atoms: _238  and  _239
REMARK   82  A    between atoms: _238  and  _241
REMARK   83  A    between atoms: _241  and  _242
REMARK   84  A    between atoms: _248  and  _250
REMARK   85  A    between atoms: _250  and  _251
REMARK   86  A    between atoms: _250  and  _253
REMARK   87  A    between atoms: _256  and  _258
REMARK   88  A    between atoms: _258  and  _259
REMARK   89  A    between atoms: _258  and  _261
REMARK   90  A    between atoms: _261  and  _262
REMARK   91  A    between atoms: _265  and  _267
REMARK   92  A    between atoms: _267  and  _268
REMARK   93  A    between atoms: _271  and  _273
REMARK   94  A    between atoms: _273  and  _274
REMARK   95  A    between atoms: _273  and  _276
REMARK   96  A    between atoms: _279  and  _281
REMARK   97  A    between atoms: _281  and  _282
REMARK   98  A    between atoms: _281  and  _284
REMARK   99  A    between atoms: _284  and  _285
REMARK  100  A    between atoms: _288  and  _290
REMARK  101  A    between atoms: _290  and  _291
REMARK  102  A    between atoms: _293  and  _295
REMARK  103  A    between atoms: _295  and  _296
REMARK  104  A    between atoms: _295  and  _298
REMARK  105  A    between atoms: _298  and  _299
REMARK  106  A    between atoms: _301  and  _303
REMARK  107  A    between atoms: _303  and  _304
REMARK  108  A    between atoms: _303  and  _306
REMARK  109  A    between atoms: _306  and  _307
REMARK  110  A    between atoms: _310  and  _312
REMARK  111  A    between atoms: _312  and  _313
REMARK  112  A    between atoms: _312  and  _315
REMARK  113  A    between atoms: _315  and  _316
REMARK  114  A    between atoms: _319  and  _321
REMARK  115  A    between atoms: _321  and  _322
REMARK  116  A    between atoms: _321  and  _324
REMARK  117  A    between atoms: _324  and  _325
REMARK  118  A    between atoms: _329  and  _330
REMARK  119  A    between atoms: _336  and  _337
REMARK  120  A    between atoms: _342  and  _344
REMARK  121  A    between atoms: _344  and  _345
REMARK  122  A    between atoms: _344  and  _347
REMARK  123  A    between atoms: _347  and  _348
REMARK  124  A    between atoms: _351  and  _353
REMARK  125  A    between atoms: _353  and  _354
REMARK  126  A    between atoms: _353  and  _356
REMARK  127  A    between atoms: _356  and  _357
REMARK  128  A    between atoms: _360  and  _362
REMARK  129  A    between atoms: _362  and  _363
REMARK  130  A    between atoms: _362  and  _365
REMARK  131  A    between atoms: _368  and  _370
REMARK  132  A    between atoms: _370  and  _371
REMARK  133  A    between atoms: _370  and  _373
REMARK  134  A    between atoms: _373  and  _374
REMARK  135  A    between atoms: _384  and  _386
REMARK  136  A    between atoms: _386  and  _387
REMARK  137  A    between atoms: _386  and  _389
REMARK  138  A    between atoms: _389  and  _390
REMARK  139  A    between atoms: _395  and  _397
REMARK  140  A    between atoms: _397  and  _398
REMARK  141  A    between atoms: _397  and  _400
REMARK  142  A    between atoms: _400  and  _401
REMARK  143  A    between atoms: _401  and  _402
REMARK  144  A    between atoms: _402  and  _403
REMARK                            x       y       z     vdW  Elec       q    Type
REMARK                         _______ _______ _______ _____ _____    ______ ____
ROOT
ATOM      1  O   HOH     1      -1.217   3.476  10.343  0.00  0.00    +0.000 OA
ENDROOT
TORSDOF 0
REMARK  Name = ../refined-set-2016/4xe1/4xe1_pocket.pdb
REMARK  144 active torsions:
REMARK  status: ('A' for Active; 'I' for Inactive)
REMARK    1  A    between atoms: _1  and  _3
REMARK    2  A    between atoms: _3  and  _4
REMARK    3  A    between atoms: _3  and  _6
REMARK    4  A    between atoms: _6  and  _7
REMARK    5  A    between atoms: _17  and  _19
REMARK    6  A    between atoms: _19  and  _20
REMARK    7  A    between atoms: _19  and  _22
REMARK    8  A    between atoms: _22  and  _23
REMARK    9  A    between atoms: _28  and  _29
REMARK   10  A    between atoms: _31  and  _33
REMARK   11  A    between atoms: _33  and  _34
REMARK   12  A    between atoms: _33  and  _36
REMARK   13  A    between atoms: _36  and  _37
REMARK   14  A    between atoms: _40  and  _41
REMARK   15  A    between atoms: _46  and  _48
REMARK   16  A    between atoms: _48  and  _49
REMARK   17  A    between atoms: _48  and  _51
REMARK   18  A    between atoms: _51  and  _52
REMARK   19  A    between atoms: _57  and  _59
REMARK   20  A    between atoms: _59  and  _60
REMARK   21  A    between atoms: _63  and  _65
REMARK   22  A    between atoms: _65  and  _66
REMARK   23  A    between atoms: _65  and  _68
REMARK   24  A    between atoms: _68  and  _69
REMARK   25  A    between atoms: _74  and  _76
REMARK   26  A    between atoms: _76  and  _77
REMARK   27  A    between atoms: _76  and  _79
REMARK   28  A    between atoms: _79  and  _80
REMARK   29  A    between atoms: _83  and  _85
REMARK   30  A    between atoms: _85  and  _86
REMARK   31  A    between atoms: _85  and  _88
REMARK   32  A    between atoms: _88  and  _89
REMARK   33  A    between atoms: _89  and  _90
REMARK   34  A    between atoms: _95  and  _97
REMARK   35  A    between atoms: _97  and  _98
REMARK   36  A    between atoms: _97  and  _100
REMARK   37  A    between atoms: _100  and  _101
REMARK   38  A    between atoms: _107  and  _109
REMARK   39  A    between atoms: _120  and  _123
REMARK   40  A    between atoms: _123  and  _124
REMARK   41  A    between atoms: _132  and  _133
REMARK   42  A    between atoms: _141  and  _143
REMARK   43  A    between atoms: _143  and  _144
REMARK   44  A    between atoms: _143  and  _146
REMARK   45  A    between atoms: _146  and  _147
REMARK   46  A    between atoms: _147  and  _148
REMARK   47  A    between atoms: _151  and  _153
REMARK   48  A    between atoms: _153  and  _154
REMARK   49  A    between atoms: _153  and  _156
REMARK   50  A    between atoms: _156  and  _157
REMARK   51  A    between atoms: _162  and  _164
REMARK   52  A    between atoms: _164  and  _165
REMARK   53  A    between atoms: _164  and  _167
REMARK   54  A    between atoms: _167  and  _168
REMARK   55  A    between atoms: _168  and  _169
REMARK   56  A    between atoms: _172  and  _174
REMARK   57  A    between atoms: _174  and  _175
REMARK   58  A    between atoms: _174  and  _177
REMARK   59  A    between atoms: _177  and  _178
REMARK   60  A    between atoms: _181  and  _183
REMARK   61  A    between atoms: _183  and  _184
REMARK   62  A    between atoms: _183  and  _186
REMARK   63  A    between atoms: _186  and  _187
REMARK   64  A    between atoms: _188  and  ZN_412
REMARK   65  A    between atoms: _192  and  _194
REMARK   66  A    between atoms: _194  and  _195
REMARK   67  A    between atoms: _194  and  _197
REMARK   68  A    between atoms: _197  and  _198
REMARK   69  A    between atoms: _201  and  _203
REMARK   70  A    between atoms: _203  and  _204
REMARK   71  A    between atoms: _203  and  _206
REMARK   72  A    between atoms: _209  and  _211
REMARK   73  A    between atoms: _211  and  _212
REMARK   74  A    between atoms: _211  and  _214
REMARK   75  A    between atoms: _214  and  _215
REMARK   76  A    between atoms: _220  and  _222
REMARK   77  A    between atoms: _222  and  _223
REMARK   78  A    between atoms: _222  and  _225
REMARK   79  A    between atoms: _225  and  _226
REMARK   80  A    between atoms: _236  and  _238
REMARK   81  A    between atoms: _238  and  _239
REMARK   82  A    between atoms: _238  and  _241
REMARK   83  A    between atoms: _241  and  _242
REMARK   84  A    between atoms: _248  and  _250
REMARK   85  A    between atoms: _250  and  _251
REMARK   86  A    between atoms: _250  and  _253
REMARK   87  A    between atoms: _256  and  _258
REMARK   88  A    between atoms: _258  and  _259
REMARK   89  A    between atoms: _258  and  _261
REMARK   90  A    between atoms: _261  and  _262
REMARK   91  A    between atoms: _265  and  _267
REMARK   92  A    between atoms: _267  and  _268
REMARK   93  A    between atoms: _271  and  _273
REMARK   94  A    between atoms: _273  and  _274
REMARK   95  A    between atoms: _273  and  _276
REMARK   96  A    between atoms: _279  and  _281
REMARK   97  A    between atoms: _281  and  _282
REMARK   98  A    between atoms: _281  and  _284
REMARK   99  A    between atoms: _284  and  _285
REMARK  100  A    between atoms: _288  and  _290
REMARK  101  A    between atoms: _290  and  _291
REMARK  102  A    between atoms: _293  and  _295
REMARK  103  A    between atoms: _295  and  _296
REMARK  104  A    between atoms: _295  and  _298
REMARK  105  A    between atoms: _298  and  _299
REMARK  106  A    between atoms: _301  and  _303
REMARK  107  A    between atoms: _303  and  _304
REMARK  108  A    between atoms: _303  and  _306
REMARK  109  A    between atoms: _306  and  _307
REMARK  110  A    between atoms: _310  and  _312
REMARK  111  A    between atoms: _312  and  _313
REMARK  112  A    between atoms: _312  and  _315
REMARK  113  A    between atoms: _315  and  _316
REMARK  114  A    between atoms: _319  and  _321
REMARK  115  A    between atoms: _321  and  _322
REMARK  116  A    between atoms: _321  and  _324
REMARK  117  A    between atoms: _324  and  _325
REMARK  118  A    between atoms: _329  and  _330
REMARK  119  A    between atoms: _336  and  _337
REMARK  120  A    between atoms: _342  and  _344
REMARK  121  A    between atoms: _344  and  _345
REMARK  122  A    between atoms: _344  and  _347
REMARK  123  A    between atoms: _347  and  _348
REMARK  124  A    between atoms: _351  and  _353
REMARK  125  A    between atoms: _353  and  _354
REMARK  126  A    between atoms: _353  and  _356
REMARK  127  A    between atoms: _356  and  _357
REMARK  128  A    between atoms: _360  and  _362
REMARK  129  A    between atoms: _362  and  _363
REMARK  130  A    between atoms: _362  and  _365
REMARK  131  A    between atoms: _368  and  _370
REMARK  132  A    between atoms: _370  and  _371
REMARK  133  A    between atoms: _370  and  _373
REMARK  134  A    between atoms: _373  and  _374
REMARK  135  A    between atoms: _384  and  _386
REMARK  136  A    between atoms: _386  and  _387
REMARK  137  A    between atoms: _386  and  _389
REMARK  138  A    between atoms: _389  and  _390
REMARK  139  A    between atoms: _395  and  _397
REMARK  140  A    between atoms: _397  and  _398
REMARK  141  A    between atoms: _397  and  _400
REMARK  142  A    between atoms: _400  and  _401
REMARK  143  A    between atoms: _401  and  _402
REMARK  144  A    between atoms: _402  and  _403
REMARK                            x       y       z     vdW  Elec       q    Type
REMARK                         _______ _______ _______ _____ _____    ______ ____
ROOT
ATOM      1  O   HOH     1      -3.713   5.049   9.982  0.00  0.00    +0.000 OA
ENDROOT
TORSDOF 0
REMARK  Name = ../refined-set-2016/4xe1/4xe1_pocket.pdb
REMARK  144 active torsions:
REMARK  status: ('A' for Active; 'I' for Inactive)
REMARK    1  A    between atoms: _1  and  _3
REMARK    2  A    between atoms: _3  and  _4
REMARK    3  A    between atoms: _3  and  _6
REMARK    4  A    between atoms: _6  and  _7
REMARK    5  A    between atoms: _17  and  _19
REMARK    6  A    between atoms: _19  and  _20
REMARK    7  A    between atoms: _19  and  _22
REMARK    8  A    between atoms: _22  and  _23
REMARK    9  A    between atoms: _28  and  _29
REMARK   10  A    between atoms: _31  and  _33
REMARK   11  A    between atoms: _33  and  _34
REMARK   12  A    between atoms: _33  and  _36
REMARK   13  A    between atoms: _36  and  _37
REMARK   14  A    between atoms: _40  and  _41
REMARK   15  A    between atoms: _46  and  _48
REMARK   16  A    between atoms: _48  and  _49
REMARK   17  A    between atoms: _48  and  _51
REMARK   18  A    between atoms: _51  and  _52
REMARK   19  A    between atoms: _57  and  _59
REMARK   20  A    between atoms: _59  and  _60
REMARK   21  A    between atoms: _63  and  _65
REMARK   22  A    between atoms: _65  and  _66
REMARK   23  A    between atoms: _65  and  _68
REMARK   24  A    between atoms: _68  and  _69
REMARK   25  A    between atoms: _74  and  _76
REMARK   26  A    between atoms: _76  and  _77
REMARK   27  A    between atoms: _76  and  _79
REMARK   28  A    between atoms: _79  and  _80
REMARK   29  A    between atoms: _83  and  _85
REMARK   30  A    between atoms: _85  and  _86
REMARK   31  A    between atoms: _85  and  _88
REMARK   32  A    between atoms: _88  and  _89
REMARK   33  A    between atoms: _89  and  _90
REMARK   34  A    between atoms: _95  and  _97
REMARK   35  A    between atoms: _97  and  _98
REMARK   36  A    between atoms: _97  and  _100
REMARK   37  A    between atoms: _100  and  _101
REMARK   38  A    between atoms: _107  and  _109
REMARK   39  A    between atoms: _120  and  _123
REMARK   40  A    between atoms: _123  and  _124
REMARK   41  A    between atoms: _132  and  _133
REMARK   42  A    between atoms: _141  and  _143
REMARK   43  A    between atoms: _143  and  _144
REMARK   44  A    between atoms: _143  and  _146
REMARK   45  A    between atoms: _146  and  _147
REMARK   46  A    between atoms: _147  and  _148
REMARK   47  A    between atoms: _151  and  _153
REMARK   48  A    between atoms: _153  and  _154
REMARK   49  A    between atoms: _153  and  _156
REMARK   50  A    between atoms: _156  and  _157
REMARK   51  A    between atoms: _162  and  _164
REMARK   52  A    between atoms: _164  and  _165
REMARK   53  A    between atoms: _164  and  _167
REMARK   54  A    between atoms: _167  and  _168
REMARK   55  A    between atoms: _168  and  _169
REMARK   56  A    between atoms: _172  and  _174
REMARK   57  A    between atoms: _174  and  _175
REMARK   58  A    between atoms: _174  and  _177
REMARK   59  A    between atoms: _177  and  _178
REMARK   60  A    between atoms: _181  and  _183
REMARK   61  A    between atoms: _183  and  _184
REMARK   62  A    between atoms: _183  and  _186
REMARK   63  A    between atoms: _186  and  _187
REMARK   64  A    between atoms: _188  and  ZN_412
REMARK   65  A    between atoms: _192  and  _194
REMARK   66  A    between atoms: _194  and  _195
REMARK   67  A    between atoms: _194  and  _197
REMARK   68  A    between atoms: _197  and  _198
REMARK   69  A    between atoms: _201  and  _203
REMARK   70  A    between atoms: _203  and  _204
REMARK   71  A    between atoms: _203  and  _206
REMARK   72  A    between atoms: _209  and  _211
REMARK   73  A    between atoms: _211  and  _212
REMARK   74  A    between atoms: _211  and  _214
REMARK   75  A    between atoms: _214  and  _215
REMARK   76  A    between atoms: _220  and  _222
REMARK   77  A    between atoms: _222  and  _223
REMARK   78  A    between atoms: _222  and  _225
REMARK   79  A    between atoms: _225  and  _226
REMARK   80  A    between atoms: _236  and  _238
REMARK   81  A    between atoms: _238  and  _239
REMARK   82  A    between atoms: _238  and  _241
REMARK   83  A    between atoms: _241  and  _242
REMARK   84  A    between atoms: _248  and  _250
REMARK   85  A    between atoms: _250  and  _251
REMARK   86  A    between atoms: _250  and  _253
REMARK   87  A    between atoms: _256  and  _258
REMARK   88  A    between atoms: _258  and  _259
REMARK   89  A    between atoms: _258  and  _261
REMARK   90  A    between atoms: _261  and  _262
REMARK   91  A    between atoms: _265  and  _267
REMARK   92  A    between atoms: _267  and  _268
REMARK   93  A    between atoms: _271  and  _273
REMARK   94  A    between atoms: _273  and  _274
REMARK   95  A    between atoms: _273  and  _276
REMARK   96  A    between atoms: _279  and  _281
REMARK   97  A    between atoms: _281  and  _282
REMARK   98  A    between atoms: _281  and  _284
REMARK   99  A    between atoms: _284  and  _285
REMARK  100  A    between atoms: _288  and  _290
REMARK  101  A    between atoms: _290  and  _291
REMARK  102  A    between atoms: _293  and  _295
REMARK  103  A    between atoms: _295  and  _296
REMARK  104  A    between atoms: _295  and  _298
REMARK  105  A    between atoms: _298  and  _299
REMARK  106  A    between atoms: _301  and  _303
REMARK  107  A    between atoms: _303  and  _304
REMARK  108  A    between atoms: _303  and  _306
REMARK  109  A    between atoms: _306  and  _307
REMARK  110  A    between atoms: _310  and  _312
REMARK  111  A    between atoms: _312  and  _313
REMARK  112  A    between atoms: _312  and  _315
REMARK  113  A    between atoms: _315  and  _316
REMARK  114  A    between atoms: _319  and  _321
REMARK  115  A    between atoms: _321  and  _322
REMARK  116  A    between atoms: _321  and  _324
REMARK  117  A    between atoms: _324  and  _325
REMARK  118  A    between atoms: _329  and  _330
REMARK  119  A    between atoms: _336  and  _337
REMARK  120  A    between atoms: _342  and  _344
REMARK  121  A    between atoms: _344  and  _345
REMARK  122  A    between atoms: _344  and  _347
REMARK  123  A    between atoms: _347  and  _348
REMARK  124  A    between atoms: _351  and  _353
REMARK  125  A    between atoms: _353  and  _354
REMARK  126  A    between atoms: _353  and  _356
REMARK  127  A    between atoms: _356  and  _357
REMARK  128  A    between atoms: _360  and  _362
REMARK  129  A    between atoms: _362  and  _363
REMARK  130  A    between atoms: _362  and  _365
REMARK  131  A    between atoms: _368  and  _370
REMARK  132  A    between atoms: _370  and  _371
REMARK  133  A    between atoms: _370  and  _373
REMARK  134  A    between atoms: _373  and  _374
REMARK  135  A    between atoms: _384  and  _386
REMARK  136  A    between atoms: _386  and  _387
REMARK  137  A    between atoms: _386  and  _389
REMARK  138  A    between atoms: _389  and  _390
REMARK  139  A    between atoms: _395  and  _397
REMARK  140  A    between atoms: _397  and  _398
REMARK  141  A    between atoms: _397  and  _400
REMARK  142  A    between atoms: _400  and  _401
REMARK  143  A    between atoms: _401  and  _402
REMARK  144  A    between atoms: _402  and  _403
REMARK                            x       y       z     vdW  Elec       q    Type
REMARK                         _______ _______ _______ _____ _____    ______ ____
ROOT
ATOM      1  O   HOH     1      -6.813   7.607  10.298  0.00  0.00    +0.000 OA
ENDROOT
TORSDOF 0
REMARK  Name = ../refined-set-2016/4xe1/4xe1_pocket.pdb
REMARK  144 active torsions:
REMARK  status: ('A' for Active; 'I' for Inactive)
REMARK    1  A    between atoms: _1  and  _3
REMARK    2  A    between atoms: _3  and  _4
REMARK    3  A    between atoms: _3  and  _6
REMARK    4  A    between atoms: _6  and  _7
REMARK    5  A    between atoms: _17  and  _19
REMARK    6  A    between atoms: _19  and  _20
REMARK    7  A    between atoms: _19  and  _22
REMARK    8  A    between atoms: _22  and  _23
REMARK    9  A    between atoms: _28  and  _29
REMARK   10  A    between atoms: _31  and  _33
REMARK   11  A    between atoms: _33  and  _34
REMARK   12  A    between atoms: _33  and  _36
REMARK   13  A    between atoms: _36  and  _37
REMARK   14  A    between atoms: _40  and  _41
REMARK   15  A    between atoms: _46  and  _48
REMARK   16  A    between atoms: _48  and  _49
REMARK   17  A    between atoms: _48  and  _51
REMARK   18  A    between atoms: _51  and  _52
REMARK   19  A    between atoms: _57  and  _59
REMARK   20  A    between atoms: _59  and  _60
REMARK   21  A    between atoms: _63  and  _65
REMARK   22  A    between atoms: _65  and  _66
REMARK   23  A    between atoms: _65  and  _68
REMARK   24  A    between atoms: _68  and  _69
REMARK   25  A    between atoms: _74  and  _76
REMARK   26  A    between atoms: _76  and  _77
REMARK   27  A    between atoms: _76  and  _79
REMARK   28  A    between atoms: _79  and  _80
REMARK   29  A    between atoms: _83  and  _85
REMARK   30  A    between atoms: _85  and  _86
REMARK   31  A    between atoms: _85  and  _88
REMARK   32  A    between atoms: _88  and  _89
REMARK   33  A    between atoms: _89  and  _90
REMARK   34  A    between atoms: _95  and  _97
REMARK   35  A    between atoms: _97  and  _98
REMARK   36  A    between atoms: _97  and  _100
REMARK   37  A    between atoms: _100  and  _101
REMARK   38  A    between atoms: _107  and  _109
REMARK   39  A    between atoms: _120  and  _123
REMARK   40  A    between atoms: _123  and  _124
REMARK   41  A    between atoms: _132  and  _133
REMARK   42  A    between atoms: _141  and  _143
REMARK   43  A    between atoms: _143  and  _144
REMARK   44  A    between atoms: _143  and  _146
REMARK   45  A    between atoms: _146  and  _147
REMARK   46  A    between atoms: _147  and  _148
REMARK   47  A    between atoms: _151  and  _153
REMARK   48  A    between atoms: _153  and  _154
REMARK   49  A    between atoms: _153  and  _156
REMARK   50  A    between atoms: _156  and  _157
REMARK   51  A    between atoms: _162  and  _164
REMARK   52  A    between atoms: _164  and  _165
REMARK   53  A    between atoms: _164  and  _167
REMARK   54  A    between atoms: _167  and  _168
REMARK   55  A    between atoms: _168  and  _169
REMARK   56  A    between atoms: _172  and  _174
REMARK   57  A    between atoms: _174  and  _175
REMARK   58  A    between atoms: _174  and  _177
REMARK   59  A    between atoms: _177  and  _178
REMARK   60  A    between atoms: _181  and  _183
REMARK   61  A    between atoms: _183  and  _184
REMARK   62  A    between atoms: _183  and  _186
REMARK   63  A    between atoms: _186  and  _187
REMARK   64  A    between atoms: _188  and  ZN_412
REMARK   65  A    between atoms: _192  and  _194
REMARK   66  A    between atoms: _194  and  _195
REMARK   67  A    between atoms: _194  and  _197
REMARK   68  A    between atoms: _197  and  _198
REMARK   69  A    between atoms: _201  and  _203
REMARK   70  A    between atoms: _203  and  _204
REMARK   71  A    between atoms: _203  and  _206
REMARK   72  A    between atoms: _209  and  _211
REMARK   73  A    between atoms: _211  and  _212
REMARK   74  A    between atoms: _211  and  _214
REMARK   75  A    between atoms: _214  and  _215
REMARK   76  A    between atoms: _220  and  _222
REMARK   77  A    between atoms: _222  and  _223
REMARK   78  A    between atoms: _222  and  _225
REMARK   79  A    between atoms: _225  and  _226
REMARK   80  A    between atoms: _236  and  _238
REMARK   81  A    between atoms: _238  and  _239
REMARK   82  A    between atoms: _238  and  _241
REMARK   83  A    between atoms: _241  and  _242
REMARK   84  A    between atoms: _248  and  _250
REMARK   85  A    between atoms: _250  and  _251
REMARK   86  A    between atoms: _250  and  _253
REMARK   87  A    between atoms: _256  and  _258
REMARK   88  A    between atoms: _258  and  _259
REMARK   89  A    between atoms: _258  and  _261
REMARK   90  A    between atoms: _261  and  _262
REMARK   91  A    between atoms: _265  and  _267
REMARK   92  A    between atoms: _267  and  _268
REMARK   93  A    between atoms: _271  and  _273
REMARK   94  A    between atoms: _273  and  _274
REMARK   95  A    between atoms: _273  and  _276
REMARK   96  A    between atoms: _279  and  _281
REMARK   97  A    between atoms: _281  and  _282
REMARK   98  A    between atoms: _281  and  _284
REMARK   99  A    between atoms: _284  and  _285
REMARK  100  A    between atoms: _288  and  _290
REMARK  101  A    between atoms: _290  and  _291
REMARK  102  A    between atoms: _293  and  _295
REMARK  103  A    between atoms: _295  and  _296
REMARK  104  A    between atoms: _295  and  _298
REMARK  105  A    between atoms: _298  and  _299
REMARK  106  A    between atoms: _301  and  _303
REMARK  107  A    between atoms: _303  and  _304
REMARK  108  A    between atoms: _303  and  _306
REMARK  109  A    between atoms: _306  and  _307
REMARK  110  A    between atoms: _310  and  _312
REMARK  111  A    between atoms: _312  and  _313
REMARK  112  A    between atoms: _312  and  _315
REMARK  113  A    between atoms: _315  and  _316
REMARK  114  A    between atoms: _319  and  _321
REMARK  115  A    between atoms: _321  and  _322
REMARK  116  A    between atoms: _321  and  _324
REMARK  117  A    between atoms: _324  and  _325
REMARK  118  A    between atoms: _329  and  _330
REMARK  119  A    between atoms: _336  and  _337
REMARK  120  A    between atoms: _342  and  _344
REMARK  121  A    between atoms: _344  and  _345
REMARK  122  A    between atoms: _344  and  _347
REMARK  123  A    between atoms: _347  and  _348
REMARK  124  A    between atoms: _351  and  _353
REMARK  125  A    between atoms: _353  and  _354
REMARK  126  A    between atoms: _353  and  _356
REMARK  127  A    between atoms: _356  and  _357
REMARK  128  A    between atoms: _360  and  _362
REMARK  129  A    between atoms: _362  and  _363
REMARK  130  A    between atoms: _362  and  _365
REMARK  131  A    between atoms: _368  and  _370
REMARK  132  A    between atoms: _370  and  _371
REMARK  133  A    between atoms: _370  and  _373
REMARK  134  A    between atoms: _373  and  _374
REMARK  135  A    between atoms: _384  and  _386
REMARK  136  A    between atoms: _386  and  _387
REMARK  137  A    between atoms: _386  and  _389
REMARK  138  A    between atoms: _389  and  _390
REMARK  139  A    between atoms: _395  and  _397
REMARK  140  A    between atoms: _397  and  _398
REMARK  141  A    between atoms: _397  and  _400
REMARK  142  A    between atoms: _400  and  _401
REMARK  143  A    between atoms: _401  and  _402
REMARK  144  A    between atoms: _402  and  _403
REMARK                            x       y       z     vdW  Elec       q    Type
REMARK                         _______ _______ _______ _____ _____    ______ ____
ROOT
ATOM      1  O   HOH     1       3.756   4.390  10.638  0.00  0.00    +0.000 OA
ENDROOT
TORSDOF 0
REMARK  Name = ../refined-set-2016/4xe1/4xe1_pocket.pdb
REMARK  144 active torsions:
REMARK  status: ('A' for Active; 'I' for Inactive)
REMARK    1  A    between atoms: _1  and  _3
REMARK    2  A    between atoms: _3  and  _4
REMARK    3  A    between atoms: _3  and  _6
REMARK    4  A    between atoms: _6  and  _7
REMARK    5  A    between atoms: _17  and  _19
REMARK    6  A    between atoms: _19  and  _20
REMARK    7  A    between atoms: _19  and  _22
REMARK    8  A    between atoms: _22  and  _23
REMARK    9  A    between atoms: _28  and  _29
REMARK   10  A    between atoms: _31  and  _33
REMARK   11  A    between atoms: _33  and  _34
REMARK   12  A    between atoms: _33  and  _36
REMARK   13  A    between atoms: _36  and  _37
REMARK   14  A    between atoms: _40  and  _41
REMARK   15  A    between atoms: _46  and  _48
REMARK   16  A    between atoms: _48  and  _49
REMARK   17  A    between atoms: _48  and  _51
REMARK   18  A    between atoms: _51  and  _52
REMARK   19  A    between atoms: _57  and  _59
REMARK   20  A    between atoms: _59  and  _60
REMARK   21  A    between atoms: _63  and  _65
REMARK   22  A    between atoms: _65  and  _66
REMARK   23  A    between atoms: _65  and  _68
REMARK   24  A    between atoms: _68  and  _69
REMARK   25  A    between atoms: _74  and  _76
REMARK   26  A    between atoms: _76  and  _77
REMARK   27  A    between atoms: _76  and  _79
REMARK   28  A    between atoms: _79  and  _80
REMARK   29  A    between atoms: _83  and  _85
REMARK   30  A    between atoms: _85  and  _86
REMARK   31  A    between atoms: _85  and  _88
REMARK   32  A    between atoms: _88  and  _89
REMARK   33  A    between atoms: _89  and  _90
REMARK   34  A    between atoms: _95  and  _97
REMARK   35  A    between atoms: _97  and  _98
REMARK   36  A    between atoms: _97  and  _100
REMARK   37  A    between atoms: _100  and  _101
REMARK   38  A    between atoms: _107  and  _109
REMARK   39  A    between atoms: _120  and  _123
REMARK   40  A    between atoms: _123  and  _124
REMARK   41  A    between atoms: _132  and  _133
REMARK   42  A    between atoms: _141  and  _143
REMARK   43  A    between atoms: _143  and  _144
REMARK   44  A    between atoms: _143  and  _146
REMARK   45  A    between atoms: _146  and  _147
REMARK   46  A    between atoms: _147  and  _148
REMARK   47  A    between atoms: _151  and  _153
REMARK   48  A    between atoms: _153  and  _154
REMARK   49  A    between atoms: _153  and  _156
REMARK   50  A    between atoms: _156  and  _157
REMARK   51  A    between atoms: _162  and  _164
REMARK   52  A    between atoms: _164  and  _165
REMARK   53  A    between atoms: _164  and  _167
REMARK   54  A    between atoms: _167  and  _168
REMARK   55  A    between atoms: _168  and  _169
REMARK   56  A    between atoms: _172  and  _174
REMARK   57  A    between atoms: _174  and  _175
REMARK   58  A    between atoms: _174  and  _177
REMARK   59  A    between atoms: _177  and  _178
REMARK   60  A    between atoms: _181  and  _183
REMARK   61  A    between atoms: _183  and  _184
REMARK   62  A    between atoms: _183  and  _186
REMARK   63  A    between atoms: _186  and  _187
REMARK   64  A    between atoms: _188  and  ZN_412
REMARK   65  A    between atoms: _192  and  _194
REMARK   66  A    between atoms: _194  and  _195
REMARK   67  A    between atoms: _194  and  _197
REMARK   68  A    between atoms: _197  and  _198
REMARK   69  A    between atoms: _201  and  _203
REMARK   70  A    between atoms: _203  and  _204
REMARK   71  A    between atoms: _203  and  _206
REMARK   72  A    between atoms: _209  and  _211
REMARK   73  A    between atoms: _211  and  _212
REMARK   74  A    between atoms: _211  and  _214
REMARK   75  A    between atoms: _214  and  _215
REMARK   76  A    between atoms: _220  and  _222
REMARK   77  A    between atoms: _222  and  _223
REMARK   78  A    between atoms: _222  and  _225
REMARK   79  A    between atoms: _225  and  _226
REMARK   80  A    between atoms: _236  and  _238
REMARK   81  A    between atoms: _238  and  _239
REMARK   82  A    between atoms: _238  and  _241
REMARK   83  A    between atoms: _241  and  _242
REMARK   84  A    between atoms: _248  and  _250
REMARK   85  A    between atoms: _250  and  _251
REMARK   86  A    between atoms: _250  and  _253
REMARK   87  A    between atoms: _256  and  _258
REMARK   88  A    between atoms: _258  and  _259
REMARK   89  A    between atoms: _258  and  _261
REMARK   90  A    between atoms: _261  and  _262
REMARK   91  A    between atoms: _265  and  _267
REMARK   92  A    between atoms: _267  and  _268
REMARK   93  A    between atoms: _271  and  _273
REMARK   94  A    between atoms: _273  and  _274
REMARK   95  A    between atoms: _273  and  _276
REMARK   96  A    between atoms: _279  and  _281
REMARK   97  A    between atoms: _281  and  _282
REMARK   98  A    between atoms: _281  and  _284
REMARK   99  A    between atoms: _284  and  _285
REMARK  100  A    between atoms: _288  and  _290
REMARK  101  A    between atoms: _290  and  _291
REMARK  102  A    between atoms: _293  and  _295
REMARK  103  A    between atoms: _295  and  _296
REMARK  104  A    between atoms: _295  and  _298
REMARK  105  A    between atoms: _298  and  _299
REMARK  106  A    between atoms: _301  and  _303
REMARK  107  A    between atoms: _303  and  _304
REMARK  108  A    between atoms: _303  and  _306
REMARK  109  A    between atoms: _306  and  _307
REMARK  110  A    between atoms: _310  and  _312
REMARK  111  A    between atoms: _312  and  _313
REMARK  112  A    between atoms: _312  and  _315
REMARK  113  A    between atoms: _315  and  _316
REMARK  114  A    between atoms: _319  and  _321
REMARK  115  A    between atoms: _321  and  _322
REMARK  116  A    between atoms: _321  and  _324
REMARK  117  A    between atoms: _324  and  _325
REMARK  118  A    between atoms: _329  and  _330
REMARK  119  A    between atoms: _336  and  _337
REMARK  120  A    between atoms: _342  and  _344
REMARK  121  A    between atoms: _344  and  _345
REMARK  122  A    between atoms: _344  and  _347
REMARK  123  A    between atoms: _347  and  _348
REMARK  124  A    between atoms: _351  and  _353
REMARK  125  A    between atoms: _353  and  _354
REMARK  126  A    between atoms: _353  and  _356
REMARK  127  A    between atoms: _356  and  _357
REMARK  128  A    between atoms: _360  and  _362
REMARK  129  A    between atoms: _362  and  _363
REMARK  130  A    between atoms: _362  and  _365
REMARK  131  A    between atoms: _368  and  _370
REMARK  132  A    between atoms: _370  and  _371
REMARK  133  A    between atoms: _370  and  _373
REMARK  134  A    between atoms: _373  and  _374
REMARK  135  A    between atoms: _384  and  _386
REMARK  136  A    between atoms: _386  and  _387
REMARK  137  A    between atoms: _386  and  _389
REMARK  138  A    between atoms: _389  and  _390
REMARK  139  A    between atoms: _395  and  _397
REMARK  140  A    between atoms: _397  and  _398
REMARK  141  A    between atoms: _397  and  _400
REMARK  142  A    between atoms: _400  and  _401
REMARK  143  A    between atoms: _401  and  _402
REMARK  144  A    between atoms: _402  and  _403
REMARK                            x       y       z     vdW  Elec       q    Type
REMARK                         _______ _______ _______ _____ _____    ______ ____
ROOT
ATOM      1  O   HOH     1      -4.192   7.955  11.308  0.00  0.00    +0.000 OA
ENDROOT
TORSDOF 0
REMARK  Name = ../refined-set-2016/4xe1/4xe1_pocket.pdb
REMARK  144 active torsions:
REMARK  status: ('A' for Active; 'I' for Inactive)
REMARK    1  A    between atoms: _1  and  _3
REMARK    2  A    between atoms: _3  and  _4
REMARK    3  A    between atoms: _3  and  _6
REMARK    4  A    between atoms: _6  and  _7
REMARK    5  A    between atoms: _17  and  _19
REMARK    6  A    between atoms: _19  and  _20
REMARK    7  A    between atoms: _19  and  _22
REMARK    8  A    between atoms: _22  and  _23
REMARK    9  A    between atoms: _28  and  _29
REMARK   10  A    between atoms: _31  and  _33
REMARK   11  A    between atoms: _33  and  _34
REMARK   12  A    between atoms: _33  and  _36
REMARK   13  A    between atoms: _36  and  _37
REMARK   14  A    between atoms: _40  and  _41
REMARK   15  A    between atoms: _46  and  _48
REMARK   16  A    between atoms: _48  and  _49
REMARK   17  A    between atoms: _48  and  _51
REMARK   18  A    between atoms: _51  and  _52
REMARK   19  A    between atoms: _57  and  _59
REMARK   20  A    between atoms: _59  and  _60
REMARK   21  A    between atoms: _63  and  _65
REMARK   22  A    between atoms: _65  and  _66
REMARK   23  A    between atoms: _65  and  _68
REMARK   24  A    between atoms: _68  and  _69
REMARK   25  A    between atoms: _74  and  _76
REMARK   26  A    between atoms: _76  and  _77
REMARK   27  A    between atoms: _76  and  _79
REMARK   28  A    between atoms: _79  and  _80
REMARK   29  A    between atoms: _83  and  _85
REMARK   30  A    between atoms: _85  and  _86
REMARK   31  A    between atoms: _85  and  _88
REMARK   32  A    between atoms: _88  and  _89
REMARK   33  A    between atoms: _89  and  _90
REMARK   34  A    between atoms: _95  and  _97
REMARK   35  A    between atoms: _97  and  _98
REMARK   36  A    between atoms: _97  and  _100
REMARK   37  A    between atoms: _100  and  _101
REMARK   38  A    between atoms: _107  and  _109
REMARK   39  A    between atoms: _120  and  _123
REMARK   40  A    between atoms: _123  and  _124
REMARK   41  A    between atoms: _132  and  _133
REMARK   42  A    between atoms: _141  and  _143
REMARK   43  A    between atoms: _143  and  _144
REMARK   44  A    between atoms: _143  and  _146
REMARK   45  A    between atoms: _146  and  _147
REMARK   46  A    between atoms: _147  and  _148
REMARK   47  A    between atoms: _151  and  _153
REMARK   48  A    between atoms: _153  and  _154
REMARK   49  A    between atoms: _153  and  _156
REMARK   50  A    between atoms: _156  and  _157
REMARK   51  A    between atoms: _162  and  _164
REMARK   52  A    between atoms: _164  and  _165
REMARK   53  A    between atoms: _164  and  _167
REMARK   54  A    between atoms: _167  and  _168
REMARK   55  A    between atoms: _168  and  _169
REMARK   56  A    between atoms: _172  and  _174
REMARK   57  A    between atoms: _174  and  _175
REMARK   58  A    between atoms: _174  and  _177
REMARK   59  A    between atoms: _177  and  _178
REMARK   60  A    between atoms: _181  and  _183
REMARK   61  A    between atoms: _183  and  _184
REMARK   62  A    between atoms: _183  and  _186
REMARK   63  A    between atoms: _186  and  _187
REMARK   64  A    between atoms: _188  and  ZN_412
REMARK   65  A    between atoms: _192  and  _194
REMARK   66  A    between atoms: _194  and  _195
REMARK   67  A    between atoms: _194  and  _197
REMARK   68  A    between atoms: _197  and  _198
REMARK   69  A    between atoms: _201  and  _203
REMARK   70  A    between atoms: _203  and  _204
REMARK   71  A    between atoms: _203  and  _206
REMARK   72  A    between atoms: _209  and  _211
REMARK   73  A    between atoms: _211  and  _212
REMARK   74  A    between atoms: _211  and  _214
REMARK   75  A    between atoms: _214  and  _215
REMARK   76  A    between atoms: _220  and  _222
REMARK   77  A    between atoms: _222  and  _223
REMARK   78  A    between atoms: _222  and  _225
REMARK   79  A    between atoms: _225  and  _226
REMARK   80  A    between atoms: _236  and  _238
REMARK   81  A    between atoms: _238  and  _239
REMARK   82  A    between atoms: _238  and  _241
REMARK   83  A    between atoms: _241  and  _242
REMARK   84  A    between atoms: _248  and  _250
REMARK   85  A    between atoms: _250  and  _251
REMARK   86  A    between atoms: _250  and  _253
REMARK   87  A    between atoms: _256  and  _258
REMARK   88  A    between atoms: _258  and  _259
REMARK   89  A    between atoms: _258  and  _261
REMARK   90  A    between atoms: _261  and  _262
REMARK   91  A    between atoms: _265  and  _267
REMARK   92  A    between atoms: _267  and  _268
REMARK   93  A    between atoms: _271  and  _273
REMARK   94  A    between atoms: _273  and  _274
REMARK   95  A    between atoms: _273  and  _276
REMARK   96  A    between atoms: _279  and  _281
REMARK   97  A    between atoms: _281  and  _282
REMARK   98  A    between atoms: _281  and  _284
REMARK   99  A    between atoms: _284  and  _285
REMARK  100  A    between atoms: _288  and  _290
REMARK  101  A    between atoms: _290  and  _291
REMARK  102  A    between atoms: _293  and  _295
REMARK  103  A    between atoms: _295  and  _296
REMARK  104  A    between atoms: _295  and  _298
REMARK  105  A    between atoms: _298  and  _299
REMARK  106  A    between atoms: _301  and  _303
REMARK  107  A    between atoms: _303  and  _304
REMARK  108  A    between atoms: _303  and  _306
REMARK  109  A    between atoms: _306  and  _307
REMARK  110  A    between atoms: _310  and  _312
REMARK  111  A    between atoms: _312  and  _313
REMARK  112  A    between atoms: _312  and  _315
REMARK  113  A    between atoms: _315  and  _316
REMARK  114  A    between atoms: _319  and  _321
REMARK  115  A    between atoms: _321  and  _322
REMARK  116  A    between atoms: _321  and  _324
REMARK  117  A    between atoms: _324  and  _325
REMARK  118  A    between atoms: _329  and  _330
REMARK  119  A    between atoms: _336  and  _337
REMARK  120  A    between atoms: _342  and  _344
REMARK  121  A    between atoms: _344  and  _345
REMARK  122  A    between atoms: _344  and  _347
REMARK  123  A    between atoms: _347  and  _348
REMARK  124  A    between atoms: _351  and  _353
REMARK  125  A    between atoms: _353  and  _354
REMARK  126  A    between atoms: _353  and  _356
REMARK  127  A    between atoms: _356  and  _357
REMARK  128  A    between atoms: _360  and  _362
REMARK  129  A    between atoms: _362  and  _363
REMARK  130  A    between atoms: _362  and  _365
REMARK  131  A    between atoms: _368  and  _370
REMARK  132  A    between atoms: _370  and  _371
REMARK  133  A    between atoms: _370  and  _373
REMARK  134  A    between atoms: _373  and  _374
REMARK  135  A    between atoms: _384  and  _386
REMARK  136  A    between atoms: _386  and  _387
REMARK  137  A    between atoms: _386  and  _389
REMARK  138  A    between atoms: _389  and  _390
REMARK  139  A    between atoms: _395  and  _397
REMARK  140  A    between atoms: _397  and  _398
REMARK  141  A    between atoms: _397  and  _400
REMARK  142  A    between atoms: _400  and  _401
REMARK  143  A    between atoms: _401  and  _402
REMARK  144  A    between atoms: _402  and  _403
REMARK                            x       y       z     vdW  Elec       q    Type
REMARK                         _______ _______ _______ _____ _____    ______ ____
ROOT
ATOM      1  O   HOH     1       4.509   6.351  12.760  0.00  0.00    +0.000 OA
ENDROOT
TORSDOF 0
