REMARK  Name = ../refined-set-2016/4x6n/4x6n_pocket.pdb
REMARK  229 active torsions:
REMARK  status: ('A' for Active; 'I' for Inactive)
REMARK    1  A    between atoms: _1  and  _5
REMARK    2  A    between atoms: _5  and  _6
REMARK    3  A    between atoms: _5  and  _8
REMARK    4  A    between atoms: _8  and  _9
REMARK    5  A    between atoms: _12  and  _14
REMARK    6  A    between atoms: _14  and  _15
REMARK    7  A    between atoms: _14  and  _17
REMARK    8  A    between atoms: _20  and  _22
REMARK    9  A    between atoms: _22  and  _23
REMARK   10  A    between atoms: _22  and  _25
REMARK   11  A    between atoms: _25  and  _26
REMARK   12  A    between atoms: _29  and  _31
REMARK   13  A    between atoms: _31  and  _32
REMARK   14  A    between atoms: _31  and  _34
REMARK   15  A    between atoms: _34  and  _35
REMARK   16  A    between atoms: _38  and  _40
REMARK   17  A    between atoms: _40  and  _41
REMARK   18  A    between atoms: _40  and  _43
REMARK   19  A    between atoms: _43  and  _44
REMARK   20  A    between atoms: _47  and  _49
REMARK   21  A    between atoms: _49  and  _50
REMARK   22  A    between atoms: _49  and  _52
REMARK   23  A    between atoms: _52  and  _53
REMARK   24  A    between atoms: _53  and  _54
REMARK   25  A    between atoms: _59  and  _61
REMARK   26  A    between atoms: _61  and  _62
REMARK   27  A    between atoms: _61  and  _64
REMARK   28  A    between atoms: _64  and  _65
REMARK   29  A    between atoms: _65  and  _66
REMARK   30  A    between atoms: _66  and  _67
REMARK   31  A    between atoms: _76  and  _78
REMARK   32  A    between atoms: _78  and  _79
REMARK   33  A    between atoms: _78  and  _81
REMARK   34  A    between atoms: _81  and  _82
REMARK   35  A    between atoms: _87  and  _89
REMARK   36  A    between atoms: _89  and  _90
REMARK   37  A    between atoms: _89  and  _92
REMARK   38  A    between atoms: _92  and  _93
REMARK   39  A    between atoms: _96  and  _98
REMARK   40  A    between atoms: _98  and  _99
REMARK   41  A    between atoms: _98  and  _101
REMARK   42  A    between atoms: _101  and  _102
REMARK   43  A    between atoms: _102  and  _137
REMARK   44  A    between atoms: _103  and  _105
REMARK   45  A    between atoms: _105  and  _106
REMARK   46  A    between atoms: _108  and  _110
REMARK   47  A    between atoms: _110  and  _111
REMARK   48  A    between atoms: _114  and  _116
REMARK   49  A    between atoms: _116  and  _117
REMARK   50  A    between atoms: _120  and  _122
REMARK   51  A    between atoms: _122  and  _123
REMARK   52  A    between atoms: _122  and  _125
REMARK   53  A    between atoms: _125  and  _126
REMARK   54  A    between atoms: _131  and  _133
REMARK   55  A    between atoms: _133  and  _134
REMARK   56  A    between atoms: _133  and  _136
REMARK   57  A    between atoms: _136  and  _137
REMARK   58  A    between atoms: _138  and  _140
REMARK   59  A    between atoms: _140  and  _141
REMARK   60  A    between atoms: _140  and  _143
REMARK   61  A    between atoms: _143  and  _144
REMARK   62  A    between atoms: _150  and  _152
REMARK   63  A    between atoms: _152  and  _153
REMARK   64  A    between atoms: _152  and  _155
REMARK   65  A    between atoms: _155  and  _156
REMARK   66  A    between atoms: _161  and  _162
REMARK   67  A    between atoms: _164  and  _166
REMARK   68  A    between atoms: _166  and  _167
REMARK   69  A    between atoms: _169  and  _171
REMARK   70  A    between atoms: _171  and  _172
REMARK   71  A    between atoms: _171  and  _174
REMARK   72  A    between atoms: _177  and  _179
REMARK   73  A    between atoms: _179  and  _180
REMARK   74  A    between atoms: _183  and  _185
REMARK   75  A    between atoms: _185  and  _186
REMARK   76  A    between atoms: _185  and  _188
REMARK   77  A    between atoms: _188  and  _189
REMARK   78  A    between atoms: _192  and  _194
REMARK   79  A    between atoms: _194  and  _195
REMARK   80  A    between atoms: _194  and  _197
REMARK   81  A    between atoms: _200  and  _202
REMARK   82  A    between atoms: _202  and  _203
REMARK   83  A    between atoms: _202  and  _205
REMARK   84  A    between atoms: _205  and  _206
REMARK   85  A    between atoms: _216  and  _218
REMARK   86  A    between atoms: _218  and  _219
REMARK   87  A    between atoms: _221  and  _223
REMARK   88  A    between atoms: _223  and  _224
REMARK   89  A    between atoms: _223  and  _226
REMARK   90  A    between atoms: _226  and  _227
REMARK   91  A    between atoms: _232  and  _233
REMARK   92  A    between atoms: _235  and  _237
REMARK   93  A    between atoms: _237  and  _238
REMARK   94  A    between atoms: _237  and  _240
REMARK   95  A    between atoms: _240  and  _241
REMARK   96  A    between atoms: _241  and  _242
REMARK   97  A    between atoms: _242  and  _243
REMARK   98  A    between atoms: _243  and  _244
REMARK   99  A    between atoms: _248  and  _250
REMARK  100  A    between atoms: _250  and  _251
REMARK  101  A    between atoms: _250  and  _253
REMARK  102  A    between atoms: _253  and  _254
REMARK  103  A    between atoms: _257  and  _259
REMARK  104  A    between atoms: _259  and  _260
REMARK  105  A    between atoms: _259  and  _262
REMARK  106  A    between atoms: _262  and  _263
REMARK  107  A    between atoms: _266  and  _268
REMARK  108  A    between atoms: _268  and  _269
REMARK  109  A    between atoms: _268  and  _271
REMARK  110  A    between atoms: _271  and  _272
REMARK  111  A    between atoms: _272  and  _273
REMARK  112  A    between atoms: _273  and  _274
REMARK  113  A    between atoms: _274  and  _275
REMARK  114  A    between atoms: _279  and  _281
REMARK  115  A    between atoms: _281  and  _282
REMARK  116  A    between atoms: _281  and  _284
REMARK  117  A    between atoms: _284  and  _285
REMARK  118  A    between atoms: _288  and  _290
REMARK  119  A    between atoms: _290  and  _291
REMARK  120  A    between atoms: _290  and  _293
REMARK  121  A    between atoms: _293  and  _294
REMARK  122  A    between atoms: _294  and  _295
REMARK  123  A    between atoms: _300  and  _302
REMARK  124  A    between atoms: _302  and  _303
REMARK  125  A    between atoms: _302  and  _305
REMARK  126  A    between atoms: _305  and  _306
REMARK  127  A    between atoms: _311  and  _312
REMARK  128  A    between atoms: _314  and  _316
REMARK  129  A    between atoms: _316  and  _317
REMARK  130  A    between atoms: _316  and  _319
REMARK  131  A    between atoms: _319  and  _320
REMARK  132  A    between atoms: _323  and  _325
REMARK  133  A    between atoms: _325  and  _326
REMARK  134  A    between atoms: _325  and  _328
REMARK  135  A    between atoms: _330  and  _332
REMARK  136  A    between atoms: _332  and  _333
REMARK  137  A    between atoms: _336  and  _338
REMARK  138  A    between atoms: _338  and  _339
REMARK  139  A    between atoms: _338  and  _341
REMARK  140  A    between atoms: _341  and  _342
REMARK  141  A    between atoms: _345  and  _347
REMARK  142  A    between atoms: _347  and  _348
REMARK  143  A    between atoms: _351  and  _353
REMARK  144  A    between atoms: _353  and  _354
REMARK  145  A    between atoms: _353  and  _356
REMARK  146  A    between atoms: _356  and  _357
REMARK  147  A    between atoms: _357  and  _480
REMARK  148  A    between atoms: _358  and  _360
REMARK  149  A    between atoms: _360  and  _361
REMARK  150  A    between atoms: _360  and  _363
REMARK  151  A    between atoms: _363  and  _364
REMARK  152  A    between atoms: _364  and  _365
REMARK  153  A    between atoms: _365  and  _366
REMARK  154  A    between atoms: _366  and  _367
REMARK  155  A    between atoms: _371  and  _373
REMARK  156  A    between atoms: _373  and  _374
REMARK  157  A    between atoms: _376  and  _378
REMARK  158  A    between atoms: _378  and  _379
REMARK  159  A    between atoms: _378  and  _381
REMARK  160  A    between atoms: _381  and  _382
REMARK  161  A    between atoms: _385  and  _387
REMARK  162  A    between atoms: _387  and  _388
REMARK  163  A    between atoms: _387  and  _390
REMARK  164  A    between atoms: _390  and  _391
REMARK  165  A    between atoms: _393  and  _395
REMARK  166  A    between atoms: _395  and  _396
REMARK  167  A    between atoms: _398  and  _400
REMARK  168  A    between atoms: _400  and  _401
REMARK  169  A    between atoms: _403  and  _405
REMARK  170  A    between atoms: _405  and  _406
REMARK  171  A    between atoms: _405  and  _408
REMARK  172  A    between atoms: _408  and  _409
REMARK  173  A    between atoms: _412  and  _414
REMARK  174  A    between atoms: _414  and  _415
REMARK  175  A    between atoms: _414  and  _417
REMARK  176  A    between atoms: _417  and  _418
REMARK  177  A    between atoms: _421  and  _423
REMARK  178  A    between atoms: _423  and  _424
REMARK  179  A    between atoms: _423  and  _426
REMARK  180  A    between atoms: _426  and  _427
REMARK  181  A    between atoms: _430  and  _432
REMARK  182  A    between atoms: _432  and  _433
REMARK  183  A    between atoms: _432  and  _435
REMARK  184  A    between atoms: _435  and  _436
REMARK  185  A    between atoms: _438  and  _440
REMARK  186  A    between atoms: _440  and  _441
REMARK  187  A    between atoms: _440  and  _443
REMARK  188  A    between atoms: _443  and  _444
REMARK  189  A    between atoms: _454  and  _456
REMARK  190  A    between atoms: _456  and  _457
REMARK  191  A    between atoms: _459  and  _461
REMARK  192  A    between atoms: _461  and  _462
REMARK  193  A    between atoms: _461  and  _464
REMARK  194  A    between atoms: _464  and  _465
REMARK  195  A    between atoms: _465  and  _466
REMARK  196  A    between atoms: _469  and  _471
REMARK  197  A    between atoms: _471  and  _472
REMARK  198  A    between atoms: _474  and  _476
REMARK  199  A    between atoms: _476  and  _477
REMARK  200  A    between atoms: _476  and  _479
REMARK  201  A    between atoms: _479  and  _480
REMARK  202  A    between atoms: _481  and  _483
REMARK  203  A    between atoms: _483  and  _484
REMARK  204  A    between atoms: _487  and  _489
REMARK  205  A    between atoms: _489  and  _490
REMARK  206  A    between atoms: _489  and  _492
REMARK  207  A    between atoms: _492  and  _493
REMARK  208  A    between atoms: _493  and  _494
REMARK  209  A    between atoms: _499  and  _501
REMARK  210  A    between atoms: _501  and  _502
REMARK  211  A    between atoms: _501  and  _504
REMARK  212  A    between atoms: _504  and  _505
REMARK  213  A    between atoms: _505  and  _506
REMARK  214  A    between atoms: _506  and  _507
REMARK  215  A    between atoms: _517  and  _518
REMARK  216  A    between atoms: _523  and  _525
REMARK  217  A    between atoms: _525  and  _526
REMARK  218  A    between atoms: _528  and  _530
REMARK  219  A    between atoms: _530  and  _531
REMARK  220  A    between atoms: _530  and  _533
REMARK  221  A    between atoms: _536  and  _538
REMARK  222  A    between atoms: _538  and  _539
REMARK  223  A    between atoms: _538  and  _541
REMARK  224  A    between atoms: _541  and  _542
REMARK  225  A    between atoms: _547  and  _548
REMARK  226  A    between atoms: _550  and  _552
REMARK  227  A    between atoms: _552  and  _553
REMARK  228  A    between atoms: _552  and  _555
REMARK  229  A    between atoms: _555  and  _556
REMARK                            x       y       z     vdW  Elec       q    Type
REMARK                         _______ _______ _______ _____ _____    ______ ____
ROOT
ATOM      1  C   ILE A   1      42.213  -9.328  33.338  0.00  0.00    +0.202 C 
ATOM      2  O   ILE A   1      43.338  -9.007  33.727  0.00  0.00    -0.277 OA
ATOM      3  N   VAL A   2      41.547  -8.663  32.384  0.00  0.00    -0.301 N 
ATOM      4  H   VAL A   2      40.605  -9.003  32.105  0.00  0.00    +0.150 HD
ENDROOT
BRANCH   1   5
ATOM      5  CA  ILE A   1      41.490 -10.505  33.983  0.00  0.00    +0.013 C 
BRANCH   5   6
ATOM      6  N   ILE A   1      42.307 -11.713  33.883  0.00  0.00    +0.387 N 
ATOM      7  H1  ILE A   1      43.212 -11.559  34.371  0.00  0.00    -0.089 HD
ATOM      8  H2  ILE A   1      41.804 -12.508  34.326  0.00  0.00    -0.089 HD
ATOM      9  H3  ILE A   1      42.484 -11.928  32.881  0.00  0.00    -0.089 HD
ENDBRANCH   5   6
BRANCH   5  10
ATOM     10  CB  ILE A   1      41.089 -10.158  35.463  0.00  0.00    -0.011 C 
ATOM     11  CG2 ILE A   1      40.256  -8.817  35.526  0.00  0.00    -0.002 C 
BRANCH  10  12
ATOM     12  CG1 ILE A   1      40.351 -11.326  36.185  0.00  0.00    -0.002 C 
ATOM     13  CD1 ILE A   1      38.882 -11.649  35.707  0.00  0.00    -0.000 C 
ENDBRANCH  10  12
ENDBRANCH   5  10
ENDBRANCH   1   5
BRANCH   3  14
ATOM     14  CA  VAL A   2      42.092  -7.473  31.715  0.00  0.00    +0.137 C 
BRANCH  14  15
ATOM     15  CB  VAL A   2      41.706  -7.421  30.204  0.00  0.00    +0.026 C 
ATOM     16  CG2 VAL A   2      42.285  -6.175  29.523  0.00  0.00    +0.002 C 
ATOM     17  CG1 VAL A   2      42.150  -8.684  29.465  0.00  0.00    +0.002 C 
ENDBRANCH  14  15
BRANCH  14  18
ATOM     18  C   VAL A   2      41.564  -6.227  32.465  0.00  0.00    +0.227 C 
ATOM     19  O   VAL A   2      40.385  -6.175  32.789  0.00  0.00    -0.286 OA
ENDBRANCH  14  18
ENDBRANCH   3  14
TORSDOF 7
REMARK  Name = ../refined-set-2016/4x6n/4x6n_pocket.pdb
REMARK  229 active torsions:
REMARK  status: ('A' for Active; 'I' for Inactive)
REMARK    1  A    between atoms: _1  and  _5
REMARK    2  A    between atoms: _5  and  _6
REMARK    3  A    between atoms: _5  and  _8
REMARK    4  A    between atoms: _8  and  _9
REMARK    5  A    between atoms: _12  and  _14
REMARK    6  A    between atoms: _14  and  _15
REMARK    7  A    between atoms: _14  and  _17
REMARK    8  A    between atoms: _20  and  _22
REMARK    9  A    between atoms: _22  and  _23
REMARK   10  A    between atoms: _22  and  _25
REMARK   11  A    between atoms: _25  and  _26
REMARK   12  A    between atoms: _29  and  _31
REMARK   13  A    between atoms: _31  and  _32
REMARK   14  A    between atoms: _31  and  _34
REMARK   15  A    between atoms: _34  and  _35
REMARK   16  A    between atoms: _38  and  _40
REMARK   17  A    between atoms: _40  and  _41
REMARK   18  A    between atoms: _40  and  _43
REMARK   19  A    between atoms: _43  and  _44
REMARK   20  A    between atoms: _47  and  _49
REMARK   21  A    between atoms: _49  and  _50
REMARK   22  A    between atoms: _49  and  _52
REMARK   23  A    between atoms: _52  and  _53
REMARK   24  A    between atoms: _53  and  _54
REMARK   25  A    between atoms: _59  and  _61
REMARK   26  A    between atoms: _61  and  _62
REMARK   27  A    between atoms: _61  and  _64
REMARK   28  A    between atoms: _64  and  _65
REMARK   29  A    between atoms: _65  and  _66
REMARK   30  A    between atoms: _66  and  _67
REMARK   31  A    between atoms: _76  and  _78
REMARK   32  A    between atoms: _78  and  _79
REMARK   33  A    between atoms: _78  and  _81
REMARK   34  A    between atoms: _81  and  _82
REMARK   35  A    between atoms: _87  and  _89
REMARK   36  A    between atoms: _89  and  _90
REMARK   37  A    between atoms: _89  and  _92
REMARK   38  A    between atoms: _92  and  _93
REMARK   39  A    between atoms: _96  and  _98
REMARK   40  A    between atoms: _98  and  _99
REMARK   41  A    between atoms: _98  and  _101
REMARK   42  A    between atoms: _101  and  _102
REMARK   43  A    between atoms: _102  and  _137
REMARK   44  A    between atoms: _103  and  _105
REMARK   45  A    between atoms: _105  and  _106
REMARK   46  A    between atoms: _108  and  _110
REMARK   47  A    between atoms: _110  and  _111
REMARK   48  A    between atoms: _114  and  _116
REMARK   49  A    between atoms: _116  and  _117
REMARK   50  A    between atoms: _120  and  _122
REMARK   51  A    between atoms: _122  and  _123
REMARK   52  A    between atoms: _122  and  _125
REMARK   53  A    between atoms: _125  and  _126
REMARK   54  A    between atoms: _131  and  _133
REMARK   55  A    between atoms: _133  and  _134
REMARK   56  A    between atoms: _133  and  _136
REMARK   57  A    between atoms: _136  and  _137
REMARK   58  A    between atoms: _138  and  _140
REMARK   59  A    between atoms: _140  and  _141
REMARK   60  A    between atoms: _140  and  _143
REMARK   61  A    between atoms: _143  and  _144
REMARK   62  A    between atoms: _150  and  _152
REMARK   63  A    between atoms: _152  and  _153
REMARK   64  A    between atoms: _152  and  _155
REMARK   65  A    between atoms: _155  and  _156
REMARK   66  A    between atoms: _161  and  _162
REMARK   67  A    between atoms: _164  and  _166
REMARK   68  A    between atoms: _166  and  _167
REMARK   69  A    between atoms: _169  and  _171
REMARK   70  A    between atoms: _171  and  _172
REMARK   71  A    between atoms: _171  and  _174
REMARK   72  A    between atoms: _177  and  _179
REMARK   73  A    between atoms: _179  and  _180
REMARK   74  A    between atoms: _183  and  _185
REMARK   75  A    between atoms: _185  and  _186
REMARK   76  A    between atoms: _185  and  _188
REMARK   77  A    between atoms: _188  and  _189
REMARK   78  A    between atoms: _192  and  _194
REMARK   79  A    between atoms: _194  and  _195
REMARK   80  A    between atoms: _194  and  _197
REMARK   81  A    between atoms: _200  and  _202
REMARK   82  A    between atoms: _202  and  _203
REMARK   83  A    between atoms: _202  and  _205
REMARK   84  A    between atoms: _205  and  _206
REMARK   85  A    between atoms: _216  and  _218
REMARK   86  A    between atoms: _218  and  _219
REMARK   87  A    between atoms: _221  and  _223
REMARK   88  A    between atoms: _223  and  _224
REMARK   89  A    between atoms: _223  and  _226
REMARK   90  A    between atoms: _226  and  _227
REMARK   91  A    between atoms: _232  and  _233
REMARK   92  A    between atoms: _235  and  _237
REMARK   93  A    between atoms: _237  and  _238
REMARK   94  A    between atoms: _237  and  _240
REMARK   95  A    between atoms: _240  and  _241
REMARK   96  A    between atoms: _241  and  _242
REMARK   97  A    between atoms: _242  and  _243
REMARK   98  A    between atoms: _243  and  _244
REMARK   99  A    between atoms: _248  and  _250
REMARK  100  A    between atoms: _250  and  _251
REMARK  101  A    between atoms: _250  and  _253
REMARK  102  A    between atoms: _253  and  _254
REMARK  103  A    between atoms: _257  and  _259
REMARK  104  A    between atoms: _259  and  _260
REMARK  105  A    between atoms: _259  and  _262
REMARK  106  A    between atoms: _262  and  _263
REMARK  107  A    between atoms: _266  and  _268
REMARK  108  A    between atoms: _268  and  _269
REMARK  109  A    between atoms: _268  and  _271
REMARK  110  A    between atoms: _271  and  _272
REMARK  111  A    between atoms: _272  and  _273
REMARK  112  A    between atoms: _273  and  _274
REMARK  113  A    between atoms: _274  and  _275
REMARK  114  A    between atoms: _279  and  _281
REMARK  115  A    between atoms: _281  and  _282
REMARK  116  A    between atoms: _281  and  _284
REMARK  117  A    between atoms: _284  and  _285
REMARK  118  A    between atoms: _288  and  _290
REMARK  119  A    between atoms: _290  and  _291
REMARK  120  A    between atoms: _290  and  _293
REMARK  121  A    between atoms: _293  and  _294
REMARK  122  A    between atoms: _294  and  _295
REMARK  123  A    between atoms: _300  and  _302
REMARK  124  A    between atoms: _302  and  _303
REMARK  125  A    between atoms: _302  and  _305
REMARK  126  A    between atoms: _305  and  _306
REMARK  127  A    between atoms: _311  and  _312
REMARK  128  A    between atoms: _314  and  _316
REMARK  129  A    between atoms: _316  and  _317
REMARK  130  A    between atoms: _316  and  _319
REMARK  131  A    between atoms: _319  and  _320
REMARK  132  A    between atoms: _323  and  _325
REMARK  133  A    between atoms: _325  and  _326
REMARK  134  A    between atoms: _325  and  _328
REMARK  135  A    between atoms: _330  and  _332
REMARK  136  A    between atoms: _332  and  _333
REMARK  137  A    between atoms: _336  and  _338
REMARK  138  A    between atoms: _338  and  _339
REMARK  139  A    between atoms: _338  and  _341
REMARK  140  A    between atoms: _341  and  _342
REMARK  141  A    between atoms: _345  and  _347
REMARK  142  A    between atoms: _347  and  _348
REMARK  143  A    between atoms: _351  and  _353
REMARK  144  A    between atoms: _353  and  _354
REMARK  145  A    between atoms: _353  and  _356
REMARK  146  A    between atoms: _356  and  _357
REMARK  147  A    between atoms: _357  and  _480
REMARK  148  A    between atoms: _358  and  _360
REMARK  149  A    between atoms: _360  and  _361
REMARK  150  A    between atoms: _360  and  _363
REMARK  151  A    between atoms: _363  and  _364
REMARK  152  A    between atoms: _364  and  _365
REMARK  153  A    between atoms: _365  and  _366
REMARK  154  A    between atoms: _366  and  _367
REMARK  155  A    between atoms: _371  and  _373
REMARK  156  A    between atoms: _373  and  _374
REMARK  157  A    between atoms: _376  and  _378
REMARK  158  A    between atoms: _378  and  _379
REMARK  159  A    between atoms: _378  and  _381
REMARK  160  A    between atoms: _381  and  _382
REMARK  161  A    between atoms: _385  and  _387
REMARK  162  A    between atoms: _387  and  _388
REMARK  163  A    between atoms: _387  and  _390
REMARK  164  A    between atoms: _390  and  _391
REMARK  165  A    between atoms: _393  and  _395
REMARK  166  A    between atoms: _395  and  _396
REMARK  167  A    between atoms: _398  and  _400
REMARK  168  A    between atoms: _400  and  _401
REMARK  169  A    between atoms: _403  and  _405
REMARK  170  A    between atoms: _405  and  _406
REMARK  171  A    between atoms: _405  and  _408
REMARK  172  A    between atoms: _408  and  _409
REMARK  173  A    between atoms: _412  and  _414
REMARK  174  A    between atoms: _414  and  _415
REMARK  175  A    between atoms: _414  and  _417
REMARK  176  A    between atoms: _417  and  _418
REMARK  177  A    between atoms: _421  and  _423
REMARK  178  A    between atoms: _423  and  _424
REMARK  179  A    between atoms: _423  and  _426
REMARK  180  A    between atoms: _426  and  _427
REMARK  181  A    between atoms: _430  and  _432
REMARK  182  A    between atoms: _432  and  _433
REMARK  183  A    between atoms: _432  and  _435
REMARK  184  A    between atoms: _435  and  _436
REMARK  185  A    between atoms: _438  and  _440
REMARK  186  A    between atoms: _440  and  _441
REMARK  187  A    between atoms: _440  and  _443
REMARK  188  A    between atoms: _443  and  _444
REMARK  189  A    between atoms: _454  and  _456
REMARK  190  A    between atoms: _456  and  _457
REMARK  191  A    between atoms: _459  and  _461
REMARK  192  A    between atoms: _461  and  _462
REMARK  193  A    between atoms: _461  and  _464
REMARK  194  A    between atoms: _464  and  _465
REMARK  195  A    between atoms: _465  and  _466
REMARK  196  A    between atoms: _469  and  _471
REMARK  197  A    between atoms: _471  and  _472
REMARK  198  A    between atoms: _474  and  _476
REMARK  199  A    between atoms: _476  and  _477
REMARK  200  A    between atoms: _476  and  _479
REMARK  201  A    between atoms: _479  and  _480
REMARK  202  A    between atoms: _481  and  _483
REMARK  203  A    between atoms: _483  and  _484
REMARK  204  A    between atoms: _487  and  _489
REMARK  205  A    between atoms: _489  and  _490
REMARK  206  A    between atoms: _489  and  _492
REMARK  207  A    between atoms: _492  and  _493
REMARK  208  A    between atoms: _493  and  _494
REMARK  209  A    between atoms: _499  and  _501
REMARK  210  A    between atoms: _501  and  _502
REMARK  211  A    between atoms: _501  and  _504
REMARK  212  A    between atoms: _504  and  _505
REMARK  213  A    between atoms: _505  and  _506
REMARK  214  A    between atoms: _506  and  _507
REMARK  215  A    between atoms: _517  and  _518
REMARK  216  A    between atoms: _523  and  _525
REMARK  217  A    between atoms: _525  and  _526
REMARK  218  A    between atoms: _528  and  _530
REMARK  219  A    between atoms: _530  and  _531
REMARK  220  A    between atoms: _530  and  _533
REMARK  221  A    between atoms: _536  and  _538
REMARK  222  A    between atoms: _538  and  _539
REMARK  223  A    between atoms: _538  and  _541
REMARK  224  A    between atoms: _541  and  _542
REMARK  225  A    between atoms: _547  and  _548
REMARK  226  A    between atoms: _550  and  _552
REMARK  227  A    between atoms: _552  and  _553
REMARK  228  A    between atoms: _552  and  _555
REMARK  229  A    between atoms: _555  and  _556
REMARK                            x       y       z     vdW  Elec       q    Type
REMARK                         _______ _______ _______ _____ _____    ______ ____
ROOT
ATOM      1  CA  LEU A   1      41.352 -25.754  39.918  0.00  0.00    +0.133 C 
ENDROOT
BRANCH   1   2
ATOM      2  N   LEU A   1      41.354 -24.345  40.278  0.00  0.00    -0.239 NA
ATOM      3  H   LEU A   1      40.998 -23.657  39.584  0.00  0.00    +0.142 HD
ENDBRANCH   1   2
BRANCH   1   4
ATOM      4  C   LEU A   1      42.661 -26.039  39.174  0.00  0.00    +0.224 C 
ATOM      5  O   LEU A   1      42.955 -25.396  38.168  0.00  0.00    -0.287 OA
ENDBRANCH   1   4
BRANCH   1   6
ATOM      6  CB  LEU A   1      40.118 -26.077  39.038  0.00  0.00    +0.025 C 
BRANCH   6   7
ATOM      7  CG  LEU A   1      40.005 -27.495  38.453  0.00  0.00    +0.002 C 
ATOM      8  CD2 LEU A   1      39.844 -28.568  39.568  0.00  0.00    +0.000 C 
ATOM      9  CD1 LEU A   1      38.825 -27.570  37.521  0.00  0.00    +0.000 C 
ENDBRANCH   6   7
ENDBRANCH   1   6
TORSDOF 4
REMARK  Name = ../refined-set-2016/4x6n/4x6n_pocket.pdb
REMARK  229 active torsions:
REMARK  status: ('A' for Active; 'I' for Inactive)
REMARK    1  A    between atoms: _1  and  _5
REMARK    2  A    between atoms: _5  and  _6
REMARK    3  A    between atoms: _5  and  _8
REMARK    4  A    between atoms: _8  and  _9
REMARK    5  A    between atoms: _12  and  _14
REMARK    6  A    between atoms: _14  and  _15
REMARK    7  A    between atoms: _14  and  _17
REMARK    8  A    between atoms: _20  and  _22
REMARK    9  A    between atoms: _22  and  _23
REMARK   10  A    between atoms: _22  and  _25
REMARK   11  A    between atoms: _25  and  _26
REMARK   12  A    between atoms: _29  and  _31
REMARK   13  A    between atoms: _31  and  _32
REMARK   14  A    between atoms: _31  and  _34
REMARK   15  A    between atoms: _34  and  _35
REMARK   16  A    between atoms: _38  and  _40
REMARK   17  A    between atoms: _40  and  _41
REMARK   18  A    between atoms: _40  and  _43
REMARK   19  A    between atoms: _43  and  _44
REMARK   20  A    between atoms: _47  and  _49
REMARK   21  A    between atoms: _49  and  _50
REMARK   22  A    between atoms: _49  and  _52
REMARK   23  A    between atoms: _52  and  _53
REMARK   24  A    between atoms: _53  and  _54
REMARK   25  A    between atoms: _59  and  _61
REMARK   26  A    between atoms: _61  and  _62
REMARK   27  A    between atoms: _61  and  _64
REMARK   28  A    between atoms: _64  and  _65
REMARK   29  A    between atoms: _65  and  _66
REMARK   30  A    between atoms: _66  and  _67
REMARK   31  A    between atoms: _76  and  _78
REMARK   32  A    between atoms: _78  and  _79
REMARK   33  A    between atoms: _78  and  _81
REMARK   34  A    between atoms: _81  and  _82
REMARK   35  A    between atoms: _87  and  _89
REMARK   36  A    between atoms: _89  and  _90
REMARK   37  A    between atoms: _89  and  _92
REMARK   38  A    between atoms: _92  and  _93
REMARK   39  A    between atoms: _96  and  _98
REMARK   40  A    between atoms: _98  and  _99
REMARK   41  A    between atoms: _98  and  _101
REMARK   42  A    between atoms: _101  and  _102
REMARK   43  A    between atoms: _102  and  _137
REMARK   44  A    between atoms: _103  and  _105
REMARK   45  A    between atoms: _105  and  _106
REMARK   46  A    between atoms: _108  and  _110
REMARK   47  A    between atoms: _110  and  _111
REMARK   48  A    between atoms: _114  and  _116
REMARK   49  A    between atoms: _116  and  _117
REMARK   50  A    between atoms: _120  and  _122
REMARK   51  A    between atoms: _122  and  _123
REMARK   52  A    between atoms: _122  and  _125
REMARK   53  A    between atoms: _125  and  _126
REMARK   54  A    between atoms: _131  and  _133
REMARK   55  A    between atoms: _133  and  _134
REMARK   56  A    between atoms: _133  and  _136
REMARK   57  A    between atoms: _136  and  _137
REMARK   58  A    between atoms: _138  and  _140
REMARK   59  A    between atoms: _140  and  _141
REMARK   60  A    between atoms: _140  and  _143
REMARK   61  A    between atoms: _143  and  _144
REMARK   62  A    between atoms: _150  and  _152
REMARK   63  A    between atoms: _152  and  _153
REMARK   64  A    between atoms: _152  and  _155
REMARK   65  A    between atoms: _155  and  _156
REMARK   66  A    between atoms: _161  and  _162
REMARK   67  A    between atoms: _164  and  _166
REMARK   68  A    between atoms: _166  and  _167
REMARK   69  A    between atoms: _169  and  _171
REMARK   70  A    between atoms: _171  and  _172
REMARK   71  A    between atoms: _171  and  _174
REMARK   72  A    between atoms: _177  and  _179
REMARK   73  A    between atoms: _179  and  _180
REMARK   74  A    between atoms: _183  and  _185
REMARK   75  A    between atoms: _185  and  _186
REMARK   76  A    between atoms: _185  and  _188
REMARK   77  A    between atoms: _188  and  _189
REMARK   78  A    between atoms: _192  and  _194
REMARK   79  A    between atoms: _194  and  _195
REMARK   80  A    between atoms: _194  and  _197
REMARK   81  A    between atoms: _200  and  _202
REMARK   82  A    between atoms: _202  and  _203
REMARK   83  A    between atoms: _202  and  _205
REMARK   84  A    between atoms: _205  and  _206
REMARK   85  A    between atoms: _216  and  _218
REMARK   86  A    between atoms: _218  and  _219
REMARK   87  A    between atoms: _221  and  _223
REMARK   88  A    between atoms: _223  and  _224
REMARK   89  A    between atoms: _223  and  _226
REMARK   90  A    between atoms: _226  and  _227
REMARK   91  A    between atoms: _232  and  _233
REMARK   92  A    between atoms: _235  and  _237
REMARK   93  A    between atoms: _237  and  _238
REMARK   94  A    between atoms: _237  and  _240
REMARK   95  A    between atoms: _240  and  _241
REMARK   96  A    between atoms: _241  and  _242
REMARK   97  A    between atoms: _242  and  _243
REMARK   98  A    between atoms: _243  and  _244
REMARK   99  A    between atoms: _248  and  _250
REMARK  100  A    between atoms: _250  and  _251
REMARK  101  A    between atoms: _250  and  _253
REMARK  102  A    between atoms: _253  and  _254
REMARK  103  A    between atoms: _257  and  _259
REMARK  104  A    between atoms: _259  and  _260
REMARK  105  A    between atoms: _259  and  _262
REMARK  106  A    between atoms: _262  and  _263
REMARK  107  A    between atoms: _266  and  _268
REMARK  108  A    between atoms: _268  and  _269
REMARK  109  A    between atoms: _268  and  _271
REMARK  110  A    between atoms: _271  and  _272
REMARK  111  A    between atoms: _272  and  _273
REMARK  112  A    between atoms: _273  and  _274
REMARK  113  A    between atoms: _274  and  _275
REMARK  114  A    between atoms: _279  and  _281
REMARK  115  A    between atoms: _281  and  _282
REMARK  116  A    between atoms: _281  and  _284
REMARK  117  A    between atoms: _284  and  _285
REMARK  118  A    between atoms: _288  and  _290
REMARK  119  A    between atoms: _290  and  _291
REMARK  120  A    between atoms: _290  and  _293
REMARK  121  A    between atoms: _293  and  _294
REMARK  122  A    between atoms: _294  and  _295
REMARK  123  A    between atoms: _300  and  _302
REMARK  124  A    between atoms: _302  and  _303
REMARK  125  A    between atoms: _302  and  _305
REMARK  126  A    between atoms: _305  and  _306
REMARK  127  A    between atoms: _311  and  _312
REMARK  128  A    between atoms: _314  and  _316
REMARK  129  A    between atoms: _316  and  _317
REMARK  130  A    between atoms: _316  and  _319
REMARK  131  A    between atoms: _319  and  _320
REMARK  132  A    between atoms: _323  and  _325
REMARK  133  A    between atoms: _325  and  _326
REMARK  134  A    between atoms: _325  and  _328
REMARK  135  A    between atoms: _330  and  _332
REMARK  136  A    between atoms: _332  and  _333
REMARK  137  A    between atoms: _336  and  _338
REMARK  138  A    between atoms: _338  and  _339
REMARK  139  A    between atoms: _338  and  _341
REMARK  140  A    between atoms: _341  and  _342
REMARK  141  A    between atoms: _345  and  _347
REMARK  142  A    between atoms: _347  and  _348
REMARK  143  A    between atoms: _351  and  _353
REMARK  144  A    between atoms: _353  and  _354
REMARK  145  A    between atoms: _353  and  _356
REMARK  146  A    between atoms: _356  and  _357
REMARK  147  A    between atoms: _357  and  _480
REMARK  148  A    between atoms: _358  and  _360
REMARK  149  A    between atoms: _360  and  _361
REMARK  150  A    between atoms: _360  and  _363
REMARK  151  A    between atoms: _363  and  _364
REMARK  152  A    between atoms: _364  and  _365
REMARK  153  A    between atoms: _365  and  _366
REMARK  154  A    between atoms: _366  and  _367
REMARK  155  A    between atoms: _371  and  _373
REMARK  156  A    between atoms: _373  and  _374
REMARK  157  A    between atoms: _376  and  _378
REMARK  158  A    between atoms: _378  and  _379
REMARK  159  A    between atoms: _378  and  _381
REMARK  160  A    between atoms: _381  and  _382
REMARK  161  A    between atoms: _385  and  _387
REMARK  162  A    between atoms: _387  and  _388
REMARK  163  A    between atoms: _387  and  _390
REMARK  164  A    between atoms: _390  and  _391
REMARK  165  A    between atoms: _393  and  _395
REMARK  166  A    between atoms: _395  and  _396
REMARK  167  A    between atoms: _398  and  _400
REMARK  168  A    between atoms: _400  and  _401
REMARK  169  A    between atoms: _403  and  _405
REMARK  170  A    between atoms: _405  and  _406
REMARK  171  A    between atoms: _405  and  _408
REMARK  172  A    between atoms: _408  and  _409
REMARK  173  A    between atoms: _412  and  _414
REMARK  174  A    between atoms: _414  and  _415
REMARK  175  A    between atoms: _414  and  _417
REMARK  176  A    between atoms: _417  and  _418
REMARK  177  A    between atoms: _421  and  _423
REMARK  178  A    between atoms: _423  and  _424
REMARK  179  A    between atoms: _423  and  _426
REMARK  180  A    between atoms: _426  and  _427
REMARK  181  A    between atoms: _430  and  _432
REMARK  182  A    between atoms: _432  and  _433
REMARK  183  A    between atoms: _432  and  _435
REMARK  184  A    between atoms: _435  and  _436
REMARK  185  A    between atoms: _438  and  _440
REMARK  186  A    between atoms: _440  and  _441
REMARK  187  A    between atoms: _440  and  _443
REMARK  188  A    between atoms: _443  and  _444
REMARK  189  A    between atoms: _454  and  _456
REMARK  190  A    between atoms: _456  and  _457
REMARK  191  A    between atoms: _459  and  _461
REMARK  192  A    between atoms: _461  and  _462
REMARK  193  A    between atoms: _461  and  _464
REMARK  194  A    between atoms: _464  and  _465
REMARK  195  A    between atoms: _465  and  _466
REMARK  196  A    between atoms: _469  and  _471
REMARK  197  A    between atoms: _471  and  _472
REMARK  198  A    between atoms: _474  and  _476
REMARK  199  A    between atoms: _476  and  _477
REMARK  200  A    between atoms: _476  and  _479
REMARK  201  A    between atoms: _479  and  _480
REMARK  202  A    between atoms: _481  and  _483
REMARK  203  A    between atoms: _483  and  _484
REMARK  204  A    between atoms: _487  and  _489
REMARK  205  A    between atoms: _489  and  _490
REMARK  206  A    between atoms: _489  and  _492
REMARK  207  A    between atoms: _492  and  _493
REMARK  208  A    between atoms: _493  and  _494
REMARK  209  A    between atoms: _499  and  _501
REMARK  210  A    between atoms: _501  and  _502
REMARK  211  A    between atoms: _501  and  _504
REMARK  212  A    between atoms: _504  and  _505
REMARK  213  A    between atoms: _505  and  _506
REMARK  214  A    between atoms: _506  and  _507
REMARK  215  A    between atoms: _517  and  _518
REMARK  216  A    between atoms: _523  and  _525
REMARK  217  A    between atoms: _525  and  _526
REMARK  218  A    between atoms: _528  and  _530
REMARK  219  A    between atoms: _530  and  _531
REMARK  220  A    between atoms: _530  and  _533
REMARK  221  A    between atoms: _536  and  _538
REMARK  222  A    between atoms: _538  and  _539
REMARK  223  A    between atoms: _538  and  _541
REMARK  224  A    between atoms: _541  and  _542
REMARK  225  A    between atoms: _547  and  _548
REMARK  226  A    between atoms: _550  and  _552
REMARK  227  A    between atoms: _552  and  _553
REMARK  228  A    between atoms: _552  and  _555
REMARK  229  A    between atoms: _555  and  _556
REMARK                            x       y       z     vdW  Elec       q    Type
REMARK                         _______ _______ _______ _____ _____    ______ ____
ROOT
ATOM      1  CA  THR A   1      45.580 -30.299  36.879  0.00  0.00    +0.160 C 
ENDROOT
BRANCH   1   2
ATOM      2  N   THR A   1      45.429 -28.979  37.477  0.00  0.00    -0.237 NA
ATOM      3  H   THR A   1      45.990 -28.192  37.093  0.00  0.00    +0.142 HD
ENDBRANCH   1   2
BRANCH   1   4
ATOM      4  C   THR A   1      47.000 -30.719  37.285  0.00  0.00    +0.227 C 
ATOM      5  O   THR A   1      47.837 -29.822  37.444  0.00  0.00    -0.287 OA
ENDBRANCH   1   4
BRANCH   1   6
ATOM      6  CB  THR A   1      45.362 -30.261  35.342  0.00  0.00    +0.134 C 
ATOM      7  CG2 THR A   1      46.310 -29.286  34.604  0.00  0.00    +0.034 C 
BRANCH   6   8
ATOM      8  OG1 THR A   1      45.577 -31.572  34.830  0.00  0.00    -0.383 OA
ATOM      9  HG1 THR A   1      45.442 -31.568  33.849  0.00  0.00    +0.210 HD
ENDBRANCH   6   8
ENDBRANCH   1   6
TORSDOF 4
REMARK  Name = ../refined-set-2016/4x6n/4x6n_pocket.pdb
REMARK  229 active torsions:
REMARK  status: ('A' for Active; 'I' for Inactive)
REMARK    1  A    between atoms: _1  and  _5
REMARK    2  A    between atoms: _5  and  _6
REMARK    3  A    between atoms: _5  and  _8
REMARK    4  A    between atoms: _8  and  _9
REMARK    5  A    between atoms: _12  and  _14
REMARK    6  A    between atoms: _14  and  _15
REMARK    7  A    between atoms: _14  and  _17
REMARK    8  A    between atoms: _20  and  _22
REMARK    9  A    between atoms: _22  and  _23
REMARK   10  A    between atoms: _22  and  _25
REMARK   11  A    between atoms: _25  and  _26
REMARK   12  A    between atoms: _29  and  _31
REMARK   13  A    between atoms: _31  and  _32
REMARK   14  A    between atoms: _31  and  _34
REMARK   15  A    between atoms: _34  and  _35
REMARK   16  A    between atoms: _38  and  _40
REMARK   17  A    between atoms: _40  and  _41
REMARK   18  A    between atoms: _40  and  _43
REMARK   19  A    between atoms: _43  and  _44
REMARK   20  A    between atoms: _47  and  _49
REMARK   21  A    between atoms: _49  and  _50
REMARK   22  A    between atoms: _49  and  _52
REMARK   23  A    between atoms: _52  and  _53
REMARK   24  A    between atoms: _53  and  _54
REMARK   25  A    between atoms: _59  and  _61
REMARK   26  A    between atoms: _61  and  _62
REMARK   27  A    between atoms: _61  and  _64
REMARK   28  A    between atoms: _64  and  _65
REMARK   29  A    between atoms: _65  and  _66
REMARK   30  A    between atoms: _66  and  _67
REMARK   31  A    between atoms: _76  and  _78
REMARK   32  A    between atoms: _78  and  _79
REMARK   33  A    between atoms: _78  and  _81
REMARK   34  A    between atoms: _81  and  _82
REMARK   35  A    between atoms: _87  and  _89
REMARK   36  A    between atoms: _89  and  _90
REMARK   37  A    between atoms: _89  and  _92
REMARK   38  A    between atoms: _92  and  _93
REMARK   39  A    between atoms: _96  and  _98
REMARK   40  A    between atoms: _98  and  _99
REMARK   41  A    between atoms: _98  and  _101
REMARK   42  A    between atoms: _101  and  _102
REMARK   43  A    between atoms: _102  and  _137
REMARK   44  A    between atoms: _103  and  _105
REMARK   45  A    between atoms: _105  and  _106
REMARK   46  A    between atoms: _108  and  _110
REMARK   47  A    between atoms: _110  and  _111
REMARK   48  A    between atoms: _114  and  _116
REMARK   49  A    between atoms: _116  and  _117
REMARK   50  A    between atoms: _120  and  _122
REMARK   51  A    between atoms: _122  and  _123
REMARK   52  A    between atoms: _122  and  _125
REMARK   53  A    between atoms: _125  and  _126
REMARK   54  A    between atoms: _131  and  _133
REMARK   55  A    between atoms: _133  and  _134
REMARK   56  A    between atoms: _133  and  _136
REMARK   57  A    between atoms: _136  and  _137
REMARK   58  A    between atoms: _138  and  _140
REMARK   59  A    between atoms: _140  and  _141
REMARK   60  A    between atoms: _140  and  _143
REMARK   61  A    between atoms: _143  and  _144
REMARK   62  A    between atoms: _150  and  _152
REMARK   63  A    between atoms: _152  and  _153
REMARK   64  A    between atoms: _152  and  _155
REMARK   65  A    between atoms: _155  and  _156
REMARK   66  A    between atoms: _161  and  _162
REMARK   67  A    between atoms: _164  and  _166
REMARK   68  A    between atoms: _166  and  _167
REMARK   69  A    between atoms: _169  and  _171
REMARK   70  A    between atoms: _171  and  _172
REMARK   71  A    between atoms: _171  and  _174
REMARK   72  A    between atoms: _177  and  _179
REMARK   73  A    between atoms: _179  and  _180
REMARK   74  A    between atoms: _183  and  _185
REMARK   75  A    between atoms: _185  and  _186
REMARK   76  A    between atoms: _185  and  _188
REMARK   77  A    between atoms: _188  and  _189
REMARK   78  A    between atoms: _192  and  _194
REMARK   79  A    between atoms: _194  and  _195
REMARK   80  A    between atoms: _194  and  _197
REMARK   81  A    between atoms: _200  and  _202
REMARK   82  A    between atoms: _202  and  _203
REMARK   83  A    between atoms: _202  and  _205
REMARK   84  A    between atoms: _205  and  _206
REMARK   85  A    between atoms: _216  and  _218
REMARK   86  A    between atoms: _218  and  _219
REMARK   87  A    between atoms: _221  and  _223
REMARK   88  A    between atoms: _223  and  _224
REMARK   89  A    between atoms: _223  and  _226
REMARK   90  A    between atoms: _226  and  _227
REMARK   91  A    between atoms: _232  and  _233
REMARK   92  A    between atoms: _235  and  _237
REMARK   93  A    between atoms: _237  and  _238
REMARK   94  A    between atoms: _237  and  _240
REMARK   95  A    between atoms: _240  and  _241
REMARK   96  A    between atoms: _241  and  _242
REMARK   97  A    between atoms: _242  and  _243
REMARK   98  A    between atoms: _243  and  _244
REMARK   99  A    between atoms: _248  and  _250
REMARK  100  A    between atoms: _250  and  _251
REMARK  101  A    between atoms: _250  and  _253
REMARK  102  A    between atoms: _253  and  _254
REMARK  103  A    between atoms: _257  and  _259
REMARK  104  A    between atoms: _259  and  _260
REMARK  105  A    between atoms: _259  and  _262
REMARK  106  A    between atoms: _262  and  _263
REMARK  107  A    between atoms: _266  and  _268
REMARK  108  A    between atoms: _268  and  _269
REMARK  109  A    between atoms: _268  and  _271
REMARK  110  A    between atoms: _271  and  _272
REMARK  111  A    between atoms: _272  and  _273
REMARK  112  A    between atoms: _273  and  _274
REMARK  113  A    between atoms: _274  and  _275
REMARK  114  A    between atoms: _279  and  _281
REMARK  115  A    between atoms: _281  and  _282
REMARK  116  A    between atoms: _281  and  _284
REMARK  117  A    between atoms: _284  and  _285
REMARK  118  A    between atoms: _288  and  _290
REMARK  119  A    between atoms: _290  and  _291
REMARK  120  A    between atoms: _290  and  _293
REMARK  121  A    between atoms: _293  and  _294
REMARK  122  A    between atoms: _294  and  _295
REMARK  123  A    between atoms: _300  and  _302
REMARK  124  A    between atoms: _302  and  _303
REMARK  125  A    between atoms: _302  and  _305
REMARK  126  A    between atoms: _305  and  _306
REMARK  127  A    between atoms: _311  and  _312
REMARK  128  A    between atoms: _314  and  _316
REMARK  129  A    between atoms: _316  and  _317
REMARK  130  A    between atoms: _316  and  _319
REMARK  131  A    between atoms: _319  and  _320
REMARK  132  A    between atoms: _323  and  _325
REMARK  133  A    between atoms: _325  and  _326
REMARK  134  A    between atoms: _325  and  _328
REMARK  135  A    between atoms: _330  and  _332
REMARK  136  A    between atoms: _332  and  _333
REMARK  137  A    between atoms: _336  and  _338
REMARK  138  A    between atoms: _338  and  _339
REMARK  139  A    between atoms: _338  and  _341
REMARK  140  A    between atoms: _341  and  _342
REMARK  141  A    between atoms: _345  and  _347
REMARK  142  A    between atoms: _347  and  _348
REMARK  143  A    between atoms: _351  and  _353
REMARK  144  A    between atoms: _353  and  _354
REMARK  145  A    between atoms: _353  and  _356
REMARK  146  A    between atoms: _356  and  _357
REMARK  147  A    between atoms: _357  and  _480
REMARK  148  A    between atoms: _358  and  _360
REMARK  149  A    between atoms: _360  and  _361
REMARK  150  A    between atoms: _360  and  _363
REMARK  151  A    between atoms: _363  and  _364
REMARK  152  A    between atoms: _364  and  _365
REMARK  153  A    between atoms: _365  and  _366
REMARK  154  A    between atoms: _366  and  _367
REMARK  155  A    between atoms: _371  and  _373
REMARK  156  A    between atoms: _373  and  _374
REMARK  157  A    between atoms: _376  and  _378
REMARK  158  A    between atoms: _378  and  _379
REMARK  159  A    between atoms: _378  and  _381
REMARK  160  A    between atoms: _381  and  _382
REMARK  161  A    between atoms: _385  and  _387
REMARK  162  A    between atoms: _387  and  _388
REMARK  163  A    between atoms: _387  and  _390
REMARK  164  A    between atoms: _390  and  _391
REMARK  165  A    between atoms: _393  and  _395
REMARK  166  A    between atoms: _395  and  _396
REMARK  167  A    between atoms: _398  and  _400
REMARK  168  A    between atoms: _400  and  _401
REMARK  169  A    between atoms: _403  and  _405
REMARK  170  A    between atoms: _405  and  _406
REMARK  171  A    between atoms: _405  and  _408
REMARK  172  A    between atoms: _408  and  _409
REMARK  173  A    between atoms: _412  and  _414
REMARK  174  A    between atoms: _414  and  _415
REMARK  175  A    between atoms: _414  and  _417
REMARK  176  A    between atoms: _417  and  _418
REMARK  177  A    between atoms: _421  and  _423
REMARK  178  A    between atoms: _423  and  _424
REMARK  179  A    between atoms: _423  and  _426
REMARK  180  A    between atoms: _426  and  _427
REMARK  181  A    between atoms: _430  and  _432
REMARK  182  A    between atoms: _432  and  _433
REMARK  183  A    between atoms: _432  and  _435
REMARK  184  A    between atoms: _435  and  _436
REMARK  185  A    between atoms: _438  and  _440
REMARK  186  A    between atoms: _440  and  _441
REMARK  187  A    between atoms: _440  and  _443
REMARK  188  A    between atoms: _443  and  _444
REMARK  189  A    between atoms: _454  and  _456
REMARK  190  A    between atoms: _456  and  _457
REMARK  191  A    between atoms: _459  and  _461
REMARK  192  A    between atoms: _461  and  _462
REMARK  193  A    between atoms: _461  and  _464
REMARK  194  A    between atoms: _464  and  _465
REMARK  195  A    between atoms: _465  and  _466
REMARK  196  A    between atoms: _469  and  _471
REMARK  197  A    between atoms: _471  and  _472
REMARK  198  A    between atoms: _474  and  _476
REMARK  199  A    between atoms: _476  and  _477
REMARK  200  A    between atoms: _476  and  _479
REMARK  201  A    between atoms: _479  and  _480
REMARK  202  A    between atoms: _481  and  _483
REMARK  203  A    between atoms: _483  and  _484
REMARK  204  A    between atoms: _487  and  _489
REMARK  205  A    between atoms: _489  and  _490
REMARK  206  A    between atoms: _489  and  _492
REMARK  207  A    between atoms: _492  and  _493
REMARK  208  A    between atoms: _493  and  _494
REMARK  209  A    between atoms: _499  and  _501
REMARK  210  A    between atoms: _501  and  _502
REMARK  211  A    between atoms: _501  and  _504
REMARK  212  A    between atoms: _504  and  _505
REMARK  213  A    between atoms: _505  and  _506
REMARK  214  A    between atoms: _506  and  _507
REMARK  215  A    between atoms: _517  and  _518
REMARK  216  A    between atoms: _523  and  _525
REMARK  217  A    between atoms: _525  and  _526
REMARK  218  A    between atoms: _528  and  _530
REMARK  219  A    between atoms: _530  and  _531
REMARK  220  A    between atoms: _530  and  _533
REMARK  221  A    between atoms: _536  and  _538
REMARK  222  A    between atoms: _538  and  _539
REMARK  223  A    between atoms: _538  and  _541
REMARK  224  A    between atoms: _541  and  _542
REMARK  225  A    between atoms: _547  and  _548
REMARK  226  A    between atoms: _550  and  _552
REMARK  227  A    between atoms: _552  and  _553
REMARK  228  A    between atoms: _552  and  _555
REMARK  229  A    between atoms: _555  and  _556
REMARK                            x       y       z     vdW  Elec       q    Type
REMARK                         _______ _______ _______ _____ _____    ______ ____
ROOT
ATOM      1  SG  TYR A   6      39.006 -23.961  33.340  0.00  0.00    -0.080 S 
ENDROOT
BRANCH   1   2
ATOM      2  CB  TYR A   6      39.221 -23.929  35.138  0.00  0.00    +0.098 C 
BRANCH   2   3
ATOM      3  CA  TYR A   6      40.388 -23.057  35.619  0.00  0.00    +0.160 C 
BRANCH   3   4
ATOM      4  C   TYR A   6      40.070 -22.456  36.980  0.00  0.00    +0.242 C 
ATOM      5  O   TYR A   6      40.614 -22.881  37.999  0.00  0.00    -0.273 OA
ATOM      6  N   GLY A   7      39.130 -21.527  36.978  0.00  0.00    -0.296 N 
ATOM      7  H   GLY A   7      38.804 -21.152  36.065  0.00  0.00    +0.150 HD
BRANCH   6   8
ATOM      8  CA  GLY A   7      38.531 -21.006  38.199  0.00  0.00    +0.163 C 
BRANCH   8   9
ATOM      9  C   GLY A   7      37.301 -21.837  38.545  0.00  0.00    +0.229 C 
ATOM     10  O   GLY A   7      36.875 -22.705  37.768  0.00  0.00    -0.286 OA
ENDBRANCH   8   9
ENDBRANCH   6   8
ENDBRANCH   3   4
BRANCH   3  12
ATOM     11  C   PHE A   5      42.358 -24.097  34.613  0.00  0.00    +0.241 C 
ATOM     12  N   TYR A   6      41.585 -23.873  35.682  0.00  0.00    -0.296 N 
ATOM     13  H   TYR A   6      41.853 -24.300  36.592  0.00  0.00    +0.150 HD
ATOM     14  O   PHE A   5      42.169 -23.548  33.522  0.00  0.00    -0.273 OA
BRANCH  11  15
ATOM     15  CA  PHE A   5      43.536 -25.050  34.809  0.00  0.00    +0.149 C 
BRANCH  15  17
ATOM     16  C   CYS A   4      45.573 -24.158  35.904  0.00  0.00    +0.241 C 
ATOM     17  N   PHE A   5      44.334 -24.672  35.971  0.00  0.00    -0.297 N 
ATOM     18  H   PHE A   5      43.916 -24.810  36.913  0.00  0.00    +0.150 HD
ATOM     19  O   CYS A   4      46.194 -24.020  34.840  0.00  0.00    -0.273 OA
BRANCH  16  20
ATOM     20  CA  CYS A   4      46.261 -23.783  37.249  0.00  0.00    +0.155 C 
BRANCH  20  22
ATOM     21  C   HIS A   3      47.955 -25.565  37.045  0.00  0.00    +0.241 C 
ATOM     22  N   CYS A   4      47.642 -24.262  37.138  0.00  0.00    -0.297 N 
ATOM     23  H   CYS A   4      48.412 -23.563  37.131  0.00  0.00    +0.150 HD
ATOM     24  O   HIS A   3      47.116 -26.473  37.121  0.00  0.00    -0.273 OA
BRANCH  21  25
ATOM     25  CA  HIS A   3      49.424 -25.911  36.816  0.00  0.00    +0.149 C 
BRANCH  25  28
ATOM     26  C   ALA A   2      50.848 -27.812  37.512  0.00  0.00    +0.241 C 
ATOM     27  O   ALA A   2      51.884 -27.148  37.514  0.00  0.00    -0.273 OA
ATOM     28  N   HIS A   3      49.644 -27.305  37.202  0.00  0.00    -0.297 N 
ATOM     29  H   HIS A   3      48.821 -27.939  37.238  0.00  0.00    +0.150 HD
BRANCH  26  30
ATOM     30  CA  ALA A   2      50.864 -29.276  37.926  0.00  0.00    +0.149 C 
BRANCH  30  32
ATOM     31  C   ALA A   1      51.651 -30.437  35.949  0.00  0.00    +0.241 C 
ATOM     32  N   ALA A   2      51.857 -30.065  37.216  0.00  0.00    -0.297 N 
ATOM     33  H   ALA A   2      52.736 -30.343  37.698  0.00  0.00    +0.150 HD
ATOM     34  O   ALA A   1      50.639 -30.113  35.321  0.00  0.00    -0.274 OA
BRANCH  31  35
ATOM     35  CA  ALA A   1      52.745 -31.288  35.274  0.00  0.00    +0.172 C 
BRANCH  35  36
ATOM     36  N   ALA A   1      52.172 -31.964  34.093  0.00  0.00    -0.236 NA
ATOM     37  H   ALA A   1      51.648 -31.369  33.420  0.00  0.00    +0.142 HD
ENDBRANCH  35  36
BRANCH  35  38
ATOM     38  CB  ALA A   1      53.933 -30.370  34.888  0.00  0.00    +0.135 C 
ATOM     39  CG2 ALA A   1      55.145 -31.138  34.352  0.00  0.00    +0.034 C 
BRANCH  38  40
ATOM     40  OG1 ALA A   1      53.490 -29.405  33.935  0.00  0.00    -0.383 OA
ATOM     41  HG1 ALA A   1      54.247 -28.817  33.686  0.00  0.00    +0.210 HD
ENDBRANCH  38  40
ENDBRANCH  35  38
ENDBRANCH  31  35
ENDBRANCH  30  32
BRANCH  30  42
ATOM     42  CB  ALA A   2      50.983 -29.418  39.445  0.00  0.00    +0.039 C 
BRANCH  42  43
ATOM     43  CG  ALA A   2      49.755 -28.830  40.139  0.00  0.00    +0.087 C 
BRANCH  43  44
ATOM     44  CD  ALA A   2      49.712 -29.022  41.614  0.00  0.00    +0.219 C 
ATOM     45  NE2 ALA A   2      49.004 -28.120  42.287  0.00  0.00    -0.329 N 
ATOM     46 HE21 ALA A   2      48.835 -28.246  43.305  0.00  0.00    +0.145 HD
ATOM     47 HE22 ALA A   2      48.619 -27.288  41.795  0.00  0.00    +0.145 HD
ATOM     48  OE1 ALA A   2      50.192 -30.027  42.147  0.00  0.00    -0.275 OA
ENDBRANCH  43  44
ENDBRANCH  42  43
ENDBRANCH  30  42
ENDBRANCH  26  30
ENDBRANCH  25  28
BRANCH  25  49
ATOM     49  CB  HIS A   3      49.805 -25.695  35.328  0.00  0.00    +0.033 C 
BRANCH  49  50
ATOM     50  CG  HIS A   3      49.016 -26.579  34.335  0.00  0.00    +0.045 C 
BRANCH  50  51
ATOM     51  CD  HIS A   3      49.294 -26.245  32.880  0.00  0.00    +0.174 C 
BRANCH  51  52
ATOM     52  NE  HIS A   3      48.561 -27.145  31.984  0.00  0.00    -0.265 N 
ATOM     53  HE  HIS A   3      49.014 -28.048  31.737  0.00  0.00    +0.259 HD
ATOM     54  CZ  HIS A   3      47.360 -26.897  31.461  0.00  0.00    +0.342 C 
ATOM     55  NH2 HIS A   3      46.741 -25.749  31.714  0.00  0.00    -0.292 N 
ATOM     56 HH21 HIS A   3      47.193 -25.038  32.323  0.00  0.00    +0.255 HD
ATOM     57 HH22 HIS A   3      45.804 -25.562  31.303  0.00  0.00    +0.255 HD
ATOM     58  NH1 HIS A   3      46.775 -27.790  30.675  0.00  0.00    -0.292 N 
ATOM     59 HH11 HIS A   3      47.253 -28.689  30.464  0.00  0.00    +0.255 HD
ATOM     60 HH12 HIS A   3      45.838 -27.591  30.270  0.00  0.00    +0.255 HD
ENDBRANCH  51  52
ENDBRANCH  50  51
ENDBRANCH  49  50
ENDBRANCH  25  49
ENDBRANCH  21  25
ENDBRANCH  20  22
BRANCH  20  61
ATOM     61  CB  CYS A   4      46.267 -22.254  37.430  0.00  0.00    +0.076 C 
BRANCH  61  62
ATOM     62  CG  CYS A   4      44.947 -21.582  37.164  0.00  0.00    +0.082 A 
ATOM     63  ND1 CYS A   4      44.025 -21.376  38.179  0.00  0.00    -0.227 NA
ATOM     64  CE1 CYS A   4      43.003 -20.754  37.619  0.00  0.00    +0.199 A 
ATOM     65  NE2 CYS A   4      43.202 -20.552  36.309  0.00  0.00    -0.221 NA
ATOM     66  CD2 CYS A   4      44.459 -21.043  36.013  0.00  0.00    +0.115 A 
ENDBRANCH  61  62
ENDBRANCH  20  61
ENDBRANCH  16  20
ENDBRANCH  15  17
BRANCH  15  67
ATOM     67  CB  PHE A   5      43.053 -26.512  34.956  0.00  0.00    +0.029 C 
BRANCH  67  68
ATOM     68  CG  PHE A   5      42.084 -27.062  33.897  0.00  0.00    +0.002 C 
ATOM     69  CD2 PHE A   5      41.456 -28.402  34.353  0.00  0.00    +0.000 C 
ATOM     70  CD1 PHE A   5      42.744 -27.138  32.513  0.00  0.00    +0.000 C 
ENDBRANCH  67  68
ENDBRANCH  15  67
ENDBRANCH  11  15
ENDBRANCH   3  12
ENDBRANCH   2   3
ENDBRANCH   1   2
BRANCH   1  71
ATOM     71  SG  CYS A   4      37.102 -24.638  33.131  0.00  0.00    -0.080 S 
BRANCH  71  72
ATOM     72  CB  CYS A   4      37.330 -26.419  32.925  0.00  0.00    +0.098 C 
BRANCH  72  73
ATOM     73  CA  CYS A   4      37.509 -26.856  31.471  0.00  0.00    +0.160 C 
BRANCH  73  74
ATOM     74  N   CYS A   4      36.253 -26.651  30.729  0.00  0.00    -0.296 N 
ATOM     75  H   CYS A   4      35.416 -26.311  31.244  0.00  0.00    +0.150 HD
ATOM     76  C   HIS A   3      36.151 -26.888  29.412  0.00  0.00    +0.241 C 
ATOM     77  O   HIS A   3      37.112 -27.252  28.721  0.00  0.00    -0.273 OA
BRANCH  76  78
ATOM     78  CA  HIS A   3      34.778 -26.695  28.763  0.00  0.00    +0.155 C 
BRANCH  78  79
ATOM     79  N   HIS A   3      33.656 -26.691  29.741  0.00  0.00    -0.297 N 
ATOM     80  C   ALA A   2      33.349 -27.792  30.479  0.00  0.00    +0.241 C 
ATOM     81  O   ALA A   2      34.023 -28.818  30.434  0.00  0.00    -0.273 OA
ATOM     82  H   HIS A   3      33.093 -25.825  29.863  0.00  0.00    +0.150 HD
BRANCH  80  83
ATOM     83  CA  ALA A   2      32.122 -27.752  31.425  0.00  0.00    +0.149 C 
ATOM     84  CB  ALA A   2      30.866 -28.121  30.637  0.00  0.00    +0.031 C 
BRANCH  83  85
ATOM     85  N   ALA A   2      31.951 -26.441  32.063  0.00  0.00    -0.297 N 
ATOM     86  C   ALA A   1      32.913 -25.870  32.807  0.00  0.00    +0.238 C 
ATOM     87  O   ALA A   1      33.968 -26.444  33.082  0.00  0.00    -0.274 OA
ATOM     88  H   ALA A   2      31.051 -25.935  31.934  0.00  0.00    +0.150 HD
BRANCH  86  89
ATOM     89  CA  ALA A   1      32.633 -24.460  33.355  0.00  0.00    +0.145 C 
ATOM     90  CB  ALA A   1      33.373 -23.394  32.519  0.00  0.00    +0.028 C 
BRANCH  89  91
ATOM     91  N   ALA A   1      32.997 -24.344  34.770  0.00  0.00    -0.238 NA
ATOM     92  H   ALA A   1      33.977 -24.090  35.010  0.00  0.00    +0.142 HD
ENDBRANCH  89  91
ENDBRANCH  86  89
ENDBRANCH  83  85
ENDBRANCH  80  83
ENDBRANCH  78  79
BRANCH  78  93
ATOM     93  CB  HIS A   3      34.770 -25.461  27.823  0.00  0.00    +0.076 C 
BRANCH  93  94
ATOM     94  CG  HIS A   3      35.271 -24.211  28.475  0.00  0.00    +0.082 A 
ATOM     95  ND1 HIS A   3      34.407 -23.260  28.941  0.00  0.00    -0.227 NA
ATOM     96  CE1 HIS A   3      35.157 -22.303  29.456  0.00  0.00    +0.199 A 
ATOM     97  NE2 HIS A   3      36.442 -22.616  29.398  0.00  0.00    -0.221 NA
ATOM     98  CD2 HIS A   3      36.534 -23.832  28.767  0.00  0.00    +0.115 A 
ENDBRANCH  93  94
ENDBRANCH  78  93
ENDBRANCH  76  78
ENDBRANCH  73  74
BRANCH  73  99
ATOM     99  C   CYS A   4      38.007 -28.305  31.407  0.00  0.00    +0.242 C 
ATOM    100  O   CYS A   4      39.194 -28.526  31.576  0.00  0.00    -0.273 OA
ATOM    101  N   PHE A   5      37.090 -29.292  31.216  0.00  0.00    -0.297 N 
ATOM    102  H   PHE A   5      36.105 -29.022  31.022  0.00  0.00    +0.150 HD
BRANCH 101 103
ATOM    103  CA  PHE A   5      37.424 -30.711  31.270  0.00  0.00    +0.153 C 
BRANCH 103 104
ATOM    104  C   PHE A   5      37.705 -31.352  29.921  0.00  0.00    +0.241 C 
ATOM    105  O   PHE A   5      37.861 -32.579  29.854  0.00  0.00    -0.273 OA
ATOM    106  N   TYR A   6      37.865 -30.535  28.867  0.00  0.00    -0.297 N 
ATOM    107  H   TYR A   6      37.747 -29.510  28.997  0.00  0.00    +0.150 HD
BRANCH 106 108
ATOM    108  CA  TYR A   6      38.201 -31.053  27.540  0.00  0.00    +0.153 C 
BRANCH 108 109
ATOM    109  C   TYR A   6      39.487 -31.907  27.687  0.00  0.00    +0.241 C 
ATOM    110  O   TYR A   6      40.479 -31.427  28.236  0.00  0.00    -0.273 OA
ATOM    111  N   GLY A   7      39.425 -33.174  27.294  0.00  0.00    -0.295 N 
ATOM    112  H   GLY A   7      38.537 -33.538  26.893  0.00  0.00    +0.150 HD
BRANCH 111 113
ATOM    113  CA  GLY A   7      40.579 -34.072  27.412  0.00  0.00    +0.176 C 
BRANCH 113 114
ATOM    114  C   GLY A   7      40.929 -34.564  28.818  0.00  0.00    +0.243 C 
ATOM    115  N   VAL A   8      40.196 -34.110  29.873  0.00  0.00    -0.298 N 
ATOM    116  H   VAL A   8      39.456 -33.400  29.701  0.00  0.00    +0.150 HD
ATOM    117  O   GLY A   7      41.874 -35.349  28.969  0.00  0.00    -0.273 OA
BRANCH 115 118
ATOM    118  CA  VAL A   8      40.415 -34.589  31.248  0.00  0.00    +0.137 C 
BRANCH 118 119
ATOM    119  CB  VAL A   8      39.935 -33.589  32.351  0.00  0.00    +0.026 C 
ATOM    120  CG2 VAL A   8      39.850 -34.262  33.728  0.00  0.00    +0.002 C 
ATOM    121  CG1 VAL A   8      40.839 -32.353  32.409  0.00  0.00    +0.002 C 
ENDBRANCH 118 119
BRANCH 118 122
ATOM    122  C   VAL A   8      39.697 -35.938  31.295  0.00  0.00    +0.227 C 
ATOM    123  O   VAL A   8      38.472 -36.006  31.191  0.00  0.00    -0.286 OA
ENDBRANCH 118 122
ENDBRANCH 115 118
ENDBRANCH 113 114
ENDBRANCH 111 113
ENDBRANCH 108 109
BRANCH 108 124
ATOM    124  CB  TYR A   6      38.420 -29.891  26.541  0.00  0.00    +0.055 C 
BRANCH 124 125
ATOM    125  CG  TYR A   6      38.785 -30.405  25.163  0.00  0.00    -0.020 A 
ATOM    126  CD2 TYR A   6      40.121 -30.601  24.800  0.00  0.00    -0.001 A 
ATOM    127  CE2 TYR A   6      40.464 -31.136  23.556  0.00  0.00    +0.036 A 
ATOM    128  CZ  TYR A   6      39.461 -31.516  22.673  0.00  0.00    +0.134 A 
ATOM    129  CE1 TYR A   6      38.128 -31.373  23.031  0.00  0.00    +0.036 A 
ATOM    130  CD1 TYR A   6      37.799 -30.822  24.272  0.00  0.00    -0.001 A 
BRANCH 128 131
ATOM    131  OH  TYR A   6      39.770 -32.056  21.453  0.00  0.00    -0.506 OA
ATOM    132  HH  TYR A   6      40.293 -32.887  21.584  0.00  0.00    +0.292 HD
ENDBRANCH 128 131
ENDBRANCH 124 125
ENDBRANCH 108 124
ENDBRANCH 106 108
ENDBRANCH 103 104
BRANCH 103 133
ATOM    133  CB  PHE A   5      36.351 -31.476  32.057  0.00  0.00    +0.055 C 
BRANCH 133 134
ATOM    134  CG  PHE A   5      36.191 -30.794  33.402  0.00  0.00    -0.020 A 
ATOM    135  CD2 PHE A   5      37.154 -30.947  34.396  0.00  0.00    -0.004 A 
ATOM    136  CE2 PHE A   5      37.072 -30.219  35.593  0.00  0.00    -0.000 A 
ATOM    137  CZ  PHE A   5      36.020 -29.344  35.796  0.00  0.00    -0.000 A 
ATOM    138  CE1 PHE A   5      35.050 -29.193  34.828  0.00  0.00    -0.000 A 
ATOM    139  CD1 PHE A   5      35.146 -29.899  33.626  0.00  0.00    -0.004 A 
ENDBRANCH 133 134
ENDBRANCH 103 133
ENDBRANCH 101 103
ENDBRANCH  73  99
ENDBRANCH  72  73
ENDBRANCH  71  72
ENDBRANCH   1  71
TORSDOF 56
REMARK  Name = ../refined-set-2016/4x6n/4x6n_pocket.pdb
REMARK  229 active torsions:
REMARK  status: ('A' for Active; 'I' for Inactive)
REMARK    1  A    between atoms: _1  and  _5
REMARK    2  A    between atoms: _5  and  _6
REMARK    3  A    between atoms: _5  and  _8
REMARK    4  A    between atoms: _8  and  _9
REMARK    5  A    between atoms: _12  and  _14
REMARK    6  A    between atoms: _14  and  _15
REMARK    7  A    between atoms: _14  and  _17
REMARK    8  A    between atoms: _20  and  _22
REMARK    9  A    between atoms: _22  and  _23
REMARK   10  A    between atoms: _22  and  _25
REMARK   11  A    between atoms: _25  and  _26
REMARK   12  A    between atoms: _29  and  _31
REMARK   13  A    between atoms: _31  and  _32
REMARK   14  A    between atoms: _31  and  _34
REMARK   15  A    between atoms: _34  and  _35
REMARK   16  A    between atoms: _38  and  _40
REMARK   17  A    between atoms: _40  and  _41
REMARK   18  A    between atoms: _40  and  _43
REMARK   19  A    between atoms: _43  and  _44
REMARK   20  A    between atoms: _47  and  _49
REMARK   21  A    between atoms: _49  and  _50
REMARK   22  A    between atoms: _49  and  _52
REMARK   23  A    between atoms: _52  and  _53
REMARK   24  A    between atoms: _53  and  _54
REMARK   25  A    between atoms: _59  and  _61
REMARK   26  A    between atoms: _61  and  _62
REMARK   27  A    between atoms: _61  and  _64
REMARK   28  A    between atoms: _64  and  _65
REMARK   29  A    between atoms: _65  and  _66
REMARK   30  A    between atoms: _66  and  _67
REMARK   31  A    between atoms: _76  and  _78
REMARK   32  A    between atoms: _78  and  _79
REMARK   33  A    between atoms: _78  and  _81
REMARK   34  A    between atoms: _81  and  _82
REMARK   35  A    between atoms: _87  and  _89
REMARK   36  A    between atoms: _89  and  _90
REMARK   37  A    between atoms: _89  and  _92
REMARK   38  A    between atoms: _92  and  _93
REMARK   39  A    between atoms: _96  and  _98
REMARK   40  A    between atoms: _98  and  _99
REMARK   41  A    between atoms: _98  and  _101
REMARK   42  A    between atoms: _101  and  _102
REMARK   43  A    between atoms: _102  and  _137
REMARK   44  A    between atoms: _103  and  _105
REMARK   45  A    between atoms: _105  and  _106
REMARK   46  A    between atoms: _108  and  _110
REMARK   47  A    between atoms: _110  and  _111
REMARK   48  A    between atoms: _114  and  _116
REMARK   49  A    between atoms: _116  and  _117
REMARK   50  A    between atoms: _120  and  _122
REMARK   51  A    between atoms: _122  and  _123
REMARK   52  A    between atoms: _122  and  _125
REMARK   53  A    between atoms: _125  and  _126
REMARK   54  A    between atoms: _131  and  _133
REMARK   55  A    between atoms: _133  and  _134
REMARK   56  A    between atoms: _133  and  _136
REMARK   57  A    between atoms: _136  and  _137
REMARK   58  A    between atoms: _138  and  _140
REMARK   59  A    between atoms: _140  and  _141
REMARK   60  A    between atoms: _140  and  _143
REMARK   61  A    between atoms: _143  and  _144
REMARK   62  A    between atoms: _150  and  _152
REMARK   63  A    between atoms: _152  and  _153
REMARK   64  A    between atoms: _152  and  _155
REMARK   65  A    between atoms: _155  and  _156
REMARK   66  A    between atoms: _161  and  _162
REMARK   67  A    between atoms: _164  and  _166
REMARK   68  A    between atoms: _166  and  _167
REMARK   69  A    between atoms: _169  and  _171
REMARK   70  A    between atoms: _171  and  _172
REMARK   71  A    between atoms: _171  and  _174
REMARK   72  A    between atoms: _177  and  _179
REMARK   73  A    between atoms: _179  and  _180
REMARK   74  A    between atoms: _183  and  _185
REMARK   75  A    between atoms: _185  and  _186
REMARK   76  A    between atoms: _185  and  _188
REMARK   77  A    between atoms: _188  and  _189
REMARK   78  A    between atoms: _192  and  _194
REMARK   79  A    between atoms: _194  and  _195
REMARK   80  A    between atoms: _194  and  _197
REMARK   81  A    between atoms: _200  and  _202
REMARK   82  A    between atoms: _202  and  _203
REMARK   83  A    between atoms: _202  and  _205
REMARK   84  A    between atoms: _205  and  _206
REMARK   85  A    between atoms: _216  and  _218
REMARK   86  A    between atoms: _218  and  _219
REMARK   87  A    between atoms: _221  and  _223
REMARK   88  A    between atoms: _223  and  _224
REMARK   89  A    between atoms: _223  and  _226
REMARK   90  A    between atoms: _226  and  _227
REMARK   91  A    between atoms: _232  and  _233
REMARK   92  A    between atoms: _235  and  _237
REMARK   93  A    between atoms: _237  and  _238
REMARK   94  A    between atoms: _237  and  _240
REMARK   95  A    between atoms: _240  and  _241
REMARK   96  A    between atoms: _241  and  _242
REMARK   97  A    between atoms: _242  and  _243
REMARK   98  A    between atoms: _243  and  _244
REMARK   99  A    between atoms: _248  and  _250
REMARK  100  A    between atoms: _250  and  _251
REMARK  101  A    between atoms: _250  and  _253
REMARK  102  A    between atoms: _253  and  _254
REMARK  103  A    between atoms: _257  and  _259
REMARK  104  A    between atoms: _259  and  _260
REMARK  105  A    between atoms: _259  and  _262
REMARK  106  A    between atoms: _262  and  _263
REMARK  107  A    between atoms: _266  and  _268
REMARK  108  A    between atoms: _268  and  _269
REMARK  109  A    between atoms: _268  and  _271
REMARK  110  A    between atoms: _271  and  _272
REMARK  111  A    between atoms: _272  and  _273
REMARK  112  A    between atoms: _273  and  _274
REMARK  113  A    between atoms: _274  and  _275
REMARK  114  A    between atoms: _279  and  _281
REMARK  115  A    between atoms: _281  and  _282
REMARK  116  A    between atoms: _281  and  _284
REMARK  117  A    between atoms: _284  and  _285
REMARK  118  A    between atoms: _288  and  _290
REMARK  119  A    between atoms: _290  and  _291
REMARK  120  A    between atoms: _290  and  _293
REMARK  121  A    between atoms: _293  and  _294
REMARK  122  A    between atoms: _294  and  _295
REMARK  123  A    between atoms: _300  and  _302
REMARK  124  A    between atoms: _302  and  _303
REMARK  125  A    between atoms: _302  and  _305
REMARK  126  A    between atoms: _305  and  _306
REMARK  127  A    between atoms: _311  and  _312
REMARK  128  A    between atoms: _314  and  _316
REMARK  129  A    between atoms: _316  and  _317
REMARK  130  A    between atoms: _316  and  _319
REMARK  131  A    between atoms: _319  and  _320
REMARK  132  A    between atoms: _323  and  _325
REMARK  133  A    between atoms: _325  and  _326
REMARK  134  A    between atoms: _325  and  _328
REMARK  135  A    between atoms: _330  and  _332
REMARK  136  A    between atoms: _332  and  _333
REMARK  137  A    between atoms: _336  and  _338
REMARK  138  A    between atoms: _338  and  _339
REMARK  139  A    between atoms: _338  and  _341
REMARK  140  A    between atoms: _341  and  _342
REMARK  141  A    between atoms: _345  and  _347
REMARK  142  A    between atoms: _347  and  _348
REMARK  143  A    between atoms: _351  and  _353
REMARK  144  A    between atoms: _353  and  _354
REMARK  145  A    between atoms: _353  and  _356
REMARK  146  A    between atoms: _356  and  _357
REMARK  147  A    between atoms: _357  and  _480
REMARK  148  A    between atoms: _358  and  _360
REMARK  149  A    between atoms: _360  and  _361
REMARK  150  A    between atoms: _360  and  _363
REMARK  151  A    between atoms: _363  and  _364
REMARK  152  A    between atoms: _364  and  _365
REMARK  153  A    between atoms: _365  and  _366
REMARK  154  A    between atoms: _366  and  _367
REMARK  155  A    between atoms: _371  and  _373
REMARK  156  A    between atoms: _373  and  _374
REMARK  157  A    between atoms: _376  and  _378
REMARK  158  A    between atoms: _378  and  _379
REMARK  159  A    between atoms: _378  and  _381
REMARK  160  A    between atoms: _381  and  _382
REMARK  161  A    between atoms: _385  and  _387
REMARK  162  A    between atoms: _387  and  _388
REMARK  163  A    between atoms: _387  and  _390
REMARK  164  A    between atoms: _390  and  _391
REMARK  165  A    between atoms: _393  and  _395
REMARK  166  A    between atoms: _395  and  _396
REMARK  167  A    between atoms: _398  and  _400
REMARK  168  A    between atoms: _400  and  _401
REMARK  169  A    between atoms: _403  and  _405
REMARK  170  A    between atoms: _405  and  _406
REMARK  171  A    between atoms: _405  and  _408
REMARK  172  A    between atoms: _408  and  _409
REMARK  173  A    between atoms: _412  and  _414
REMARK  174  A    between atoms: _414  and  _415
REMARK  175  A    between atoms: _414  and  _417
REMARK  176  A    between atoms: _417  and  _418
REMARK  177  A    between atoms: _421  and  _423
REMARK  178  A    between atoms: _423  and  _424
REMARK  179  A    between atoms: _423  and  _426
REMARK  180  A    between atoms: _426  and  _427
REMARK  181  A    between atoms: _430  and  _432
REMARK  182  A    between atoms: _432  and  _433
REMARK  183  A    between atoms: _432  and  _435
REMARK  184  A    between atoms: _435  and  _436
REMARK  185  A    between atoms: _438  and  _440
REMARK  186  A    between atoms: _440  and  _441
REMARK  187  A    between atoms: _440  and  _443
REMARK  188  A    between atoms: _443  and  _444
REMARK  189  A    between atoms: _454  and  _456
REMARK  190  A    between atoms: _456  and  _457
REMARK  191  A    between atoms: _459  and  _461
REMARK  192  A    between atoms: _461  and  _462
REMARK  193  A    between atoms: _461  and  _464
REMARK  194  A    between atoms: _464  and  _465
REMARK  195  A    between atoms: _465  and  _466
REMARK  196  A    between atoms: _469  and  _471
REMARK  197  A    between atoms: _471  and  _472
REMARK  198  A    between atoms: _474  and  _476
REMARK  199  A    between atoms: _476  and  _477
REMARK  200  A    between atoms: _476  and  _479
REMARK  201  A    between atoms: _479  and  _480
REMARK  202  A    between atoms: _481  and  _483
REMARK  203  A    between atoms: _483  and  _484
REMARK  204  A    between atoms: _487  and  _489
REMARK  205  A    between atoms: _489  and  _490
REMARK  206  A    between atoms: _489  and  _492
REMARK  207  A    between atoms: _492  and  _493
REMARK  208  A    between atoms: _493  and  _494
REMARK  209  A    between atoms: _499  and  _501
REMARK  210  A    between atoms: _501  and  _502
REMARK  211  A    between atoms: _501  and  _504
REMARK  212  A    between atoms: _504  and  _505
REMARK  213  A    between atoms: _505  and  _506
REMARK  214  A    between atoms: _506  and  _507
REMARK  215  A    between atoms: _517  and  _518
REMARK  216  A    between atoms: _523  and  _525
REMARK  217  A    between atoms: _525  and  _526
REMARK  218  A    between atoms: _528  and  _530
REMARK  219  A    between atoms: _530  and  _531
REMARK  220  A    between atoms: _530  and  _533
REMARK  221  A    between atoms: _536  and  _538
REMARK  222  A    between atoms: _538  and  _539
REMARK  223  A    between atoms: _538  and  _541
REMARK  224  A    between atoms: _541  and  _542
REMARK  225  A    between atoms: _547  and  _548
REMARK  226  A    between atoms: _550  and  _552
REMARK  227  A    between atoms: _552  and  _553
REMARK  228  A    between atoms: _552  and  _555
REMARK  229  A    between atoms: _555  and  _556
REMARK                            x       y       z     vdW  Elec       q    Type
REMARK                         _______ _______ _______ _____ _____    ______ ____
ROOT
ATOM      1  CA  ALA A   1      31.077 -23.124  25.320  0.00  0.00    +0.133 C 
ATOM      2  CB  ALA A   1      32.381 -22.402  25.677  0.00  0.00    +0.027 C 
ENDROOT
BRANCH   1   3
ATOM      3  N   ALA A   1      31.371 -24.387  24.609  0.00  0.00    -0.239 NA
ATOM      4  H   ALA A   1      32.365 -24.660  24.474  0.00  0.00    +0.142 HD
ENDBRANCH   1   3
BRANCH   1   5
ATOM      5  C   ALA A   1      30.156 -22.192  24.523  0.00  0.00    +0.224 C 
ATOM      6  O   ALA A   1      29.199 -21.641  25.077  0.00  0.00    -0.287 OA
ENDBRANCH   1   5
TORSDOF 2
REMARK  Name = ../refined-set-2016/4x6n/4x6n_pocket.pdb
REMARK  229 active torsions:
REMARK  status: ('A' for Active; 'I' for Inactive)
REMARK    1  A    between atoms: _1  and  _5
REMARK    2  A    between atoms: _5  and  _6
REMARK    3  A    between atoms: _5  and  _8
REMARK    4  A    between atoms: _8  and  _9
REMARK    5  A    between atoms: _12  and  _14
REMARK    6  A    between atoms: _14  and  _15
REMARK    7  A    between atoms: _14  and  _17
REMARK    8  A    between atoms: _20  and  _22
REMARK    9  A    between atoms: _22  and  _23
REMARK   10  A    between atoms: _22  and  _25
REMARK   11  A    between atoms: _25  and  _26
REMARK   12  A    between atoms: _29  and  _31
REMARK   13  A    between atoms: _31  and  _32
REMARK   14  A    between atoms: _31  and  _34
REMARK   15  A    between atoms: _34  and  _35
REMARK   16  A    between atoms: _38  and  _40
REMARK   17  A    between atoms: _40  and  _41
REMARK   18  A    between atoms: _40  and  _43
REMARK   19  A    between atoms: _43  and  _44
REMARK   20  A    between atoms: _47  and  _49
REMARK   21  A    between atoms: _49  and  _50
REMARK   22  A    between atoms: _49  and  _52
REMARK   23  A    between atoms: _52  and  _53
REMARK   24  A    between atoms: _53  and  _54
REMARK   25  A    between atoms: _59  and  _61
REMARK   26  A    between atoms: _61  and  _62
REMARK   27  A    between atoms: _61  and  _64
REMARK   28  A    between atoms: _64  and  _65
REMARK   29  A    between atoms: _65  and  _66
REMARK   30  A    between atoms: _66  and  _67
REMARK   31  A    between atoms: _76  and  _78
REMARK   32  A    between atoms: _78  and  _79
REMARK   33  A    between atoms: _78  and  _81
REMARK   34  A    between atoms: _81  and  _82
REMARK   35  A    between atoms: _87  and  _89
REMARK   36  A    between atoms: _89  and  _90
REMARK   37  A    between atoms: _89  and  _92
REMARK   38  A    between atoms: _92  and  _93
REMARK   39  A    between atoms: _96  and  _98
REMARK   40  A    between atoms: _98  and  _99
REMARK   41  A    between atoms: _98  and  _101
REMARK   42  A    between atoms: _101  and  _102
REMARK   43  A    between atoms: _102  and  _137
REMARK   44  A    between atoms: _103  and  _105
REMARK   45  A    between atoms: _105  and  _106
REMARK   46  A    between atoms: _108  and  _110
REMARK   47  A    between atoms: _110  and  _111
REMARK   48  A    between atoms: _114  and  _116
REMARK   49  A    between atoms: _116  and  _117
REMARK   50  A    between atoms: _120  and  _122
REMARK   51  A    between atoms: _122  and  _123
REMARK   52  A    between atoms: _122  and  _125
REMARK   53  A    between atoms: _125  and  _126
REMARK   54  A    between atoms: _131  and  _133
REMARK   55  A    between atoms: _133  and  _134
REMARK   56  A    between atoms: _133  and  _136
REMARK   57  A    between atoms: _136  and  _137
REMARK   58  A    between atoms: _138  and  _140
REMARK   59  A    between atoms: _140  and  _141
REMARK   60  A    between atoms: _140  and  _143
REMARK   61  A    between atoms: _143  and  _144
REMARK   62  A    between atoms: _150  and  _152
REMARK   63  A    between atoms: _152  and  _153
REMARK   64  A    between atoms: _152  and  _155
REMARK   65  A    between atoms: _155  and  _156
REMARK   66  A    between atoms: _161  and  _162
REMARK   67  A    between atoms: _164  and  _166
REMARK   68  A    between atoms: _166  and  _167
REMARK   69  A    between atoms: _169  and  _171
REMARK   70  A    between atoms: _171  and  _172
REMARK   71  A    between atoms: _171  and  _174
REMARK   72  A    between atoms: _177  and  _179
REMARK   73  A    between atoms: _179  and  _180
REMARK   74  A    between atoms: _183  and  _185
REMARK   75  A    between atoms: _185  and  _186
REMARK   76  A    between atoms: _185  and  _188
REMARK   77  A    between atoms: _188  and  _189
REMARK   78  A    between atoms: _192  and  _194
REMARK   79  A    between atoms: _194  and  _195
REMARK   80  A    between atoms: _194  and  _197
REMARK   81  A    between atoms: _200  and  _202
REMARK   82  A    between atoms: _202  and  _203
REMARK   83  A    between atoms: _202  and  _205
REMARK   84  A    between atoms: _205  and  _206
REMARK   85  A    between atoms: _216  and  _218
REMARK   86  A    between atoms: _218  and  _219
REMARK   87  A    between atoms: _221  and  _223
REMARK   88  A    between atoms: _223  and  _224
REMARK   89  A    between atoms: _223  and  _226
REMARK   90  A    between atoms: _226  and  _227
REMARK   91  A    between atoms: _232  and  _233
REMARK   92  A    between atoms: _235  and  _237
REMARK   93  A    between atoms: _237  and  _238
REMARK   94  A    between atoms: _237  and  _240
REMARK   95  A    between atoms: _240  and  _241
REMARK   96  A    between atoms: _241  and  _242
REMARK   97  A    between atoms: _242  and  _243
REMARK   98  A    between atoms: _243  and  _244
REMARK   99  A    between atoms: _248  and  _250
REMARK  100  A    between atoms: _250  and  _251
REMARK  101  A    between atoms: _250  and  _253
REMARK  102  A    between atoms: _253  and  _254
REMARK  103  A    between atoms: _257  and  _259
REMARK  104  A    between atoms: _259  and  _260
REMARK  105  A    between atoms: _259  and  _262
REMARK  106  A    between atoms: _262  and  _263
REMARK  107  A    between atoms: _266  and  _268
REMARK  108  A    between atoms: _268  and  _269
REMARK  109  A    between atoms: _268  and  _271
REMARK  110  A    between atoms: _271  and  _272
REMARK  111  A    between atoms: _272  and  _273
REMARK  112  A    between atoms: _273  and  _274
REMARK  113  A    between atoms: _274  and  _275
REMARK  114  A    between atoms: _279  and  _281
REMARK  115  A    between atoms: _281  and  _282
REMARK  116  A    between atoms: _281  and  _284
REMARK  117  A    between atoms: _284  and  _285
REMARK  118  A    between atoms: _288  and  _290
REMARK  119  A    between atoms: _290  and  _291
REMARK  120  A    between atoms: _290  and  _293
REMARK  121  A    between atoms: _293  and  _294
REMARK  122  A    between atoms: _294  and  _295
REMARK  123  A    between atoms: _300  and  _302
REMARK  124  A    between atoms: _302  and  _303
REMARK  125  A    between atoms: _302  and  _305
REMARK  126  A    between atoms: _305  and  _306
REMARK  127  A    between atoms: _311  and  _312
REMARK  128  A    between atoms: _314  and  _316
REMARK  129  A    between atoms: _316  and  _317
REMARK  130  A    between atoms: _316  and  _319
REMARK  131  A    between atoms: _319  and  _320
REMARK  132  A    between atoms: _323  and  _325
REMARK  133  A    between atoms: _325  and  _326
REMARK  134  A    between atoms: _325  and  _328
REMARK  135  A    between atoms: _330  and  _332
REMARK  136  A    between atoms: _332  and  _333
REMARK  137  A    between atoms: _336  and  _338
REMARK  138  A    between atoms: _338  and  _339
REMARK  139  A    between atoms: _338  and  _341
REMARK  140  A    between atoms: _341  and  _342
REMARK  141  A    between atoms: _345  and  _347
REMARK  142  A    between atoms: _347  and  _348
REMARK  143  A    between atoms: _351  and  _353
REMARK  144  A    between atoms: _353  and  _354
REMARK  145  A    between atoms: _353  and  _356
REMARK  146  A    between atoms: _356  and  _357
REMARK  147  A    between atoms: _357  and  _480
REMARK  148  A    between atoms: _358  and  _360
REMARK  149  A    between atoms: _360  and  _361
REMARK  150  A    between atoms: _360  and  _363
REMARK  151  A    between atoms: _363  and  _364
REMARK  152  A    between atoms: _364  and  _365
REMARK  153  A    between atoms: _365  and  _366
REMARK  154  A    between atoms: _366  and  _367
REMARK  155  A    between atoms: _371  and  _373
REMARK  156  A    between atoms: _373  and  _374
REMARK  157  A    between atoms: _376  and  _378
REMARK  158  A    between atoms: _378  and  _379
REMARK  159  A    between atoms: _378  and  _381
REMARK  160  A    between atoms: _381  and  _382
REMARK  161  A    between atoms: _385  and  _387
REMARK  162  A    between atoms: _387  and  _388
REMARK  163  A    between atoms: _387  and  _390
REMARK  164  A    between atoms: _390  and  _391
REMARK  165  A    between atoms: _393  and  _395
REMARK  166  A    between atoms: _395  and  _396
REMARK  167  A    between atoms: _398  and  _400
REMARK  168  A    between atoms: _400  and  _401
REMARK  169  A    between atoms: _403  and  _405
REMARK  170  A    between atoms: _405  and  _406
REMARK  171  A    between atoms: _405  and  _408
REMARK  172  A    between atoms: _408  and  _409
REMARK  173  A    between atoms: _412  and  _414
REMARK  174  A    between atoms: _414  and  _415
REMARK  175  A    between atoms: _414  and  _417
REMARK  176  A    between atoms: _417  and  _418
REMARK  177  A    between atoms: _421  and  _423
REMARK  178  A    between atoms: _423  and  _424
REMARK  179  A    between atoms: _423  and  _426
REMARK  180  A    between atoms: _426  and  _427
REMARK  181  A    between atoms: _430  and  _432
REMARK  182  A    between atoms: _432  and  _433
REMARK  183  A    between atoms: _432  and  _435
REMARK  184  A    between atoms: _435  and  _436
REMARK  185  A    between atoms: _438  and  _440
REMARK  186  A    between atoms: _440  and  _441
REMARK  187  A    between atoms: _440  and  _443
REMARK  188  A    between atoms: _443  and  _444
REMARK  189  A    between atoms: _454  and  _456
REMARK  190  A    between atoms: _456  and  _457
REMARK  191  A    between atoms: _459  and  _461
REMARK  192  A    between atoms: _461  and  _462
REMARK  193  A    between atoms: _461  and  _464
REMARK  194  A    between atoms: _464  and  _465
REMARK  195  A    between atoms: _465  and  _466
REMARK  196  A    between atoms: _469  and  _471
REMARK  197  A    between atoms: _471  and  _472
REMARK  198  A    between atoms: _474  and  _476
REMARK  199  A    between atoms: _476  and  _477
REMARK  200  A    between atoms: _476  and  _479
REMARK  201  A    between atoms: _479  and  _480
REMARK  202  A    between atoms: _481  and  _483
REMARK  203  A    between atoms: _483  and  _484
REMARK  204  A    between atoms: _487  and  _489
REMARK  205  A    between atoms: _489  and  _490
REMARK  206  A    between atoms: _489  and  _492
REMARK  207  A    between atoms: _492  and  _493
REMARK  208  A    between atoms: _493  and  _494
REMARK  209  A    between atoms: _499  and  _501
REMARK  210  A    between atoms: _501  and  _502
REMARK  211  A    between atoms: _501  and  _504
REMARK  212  A    between atoms: _504  and  _505
REMARK  213  A    between atoms: _505  and  _506
REMARK  214  A    between atoms: _506  and  _507
REMARK  215  A    between atoms: _517  and  _518
REMARK  216  A    between atoms: _523  and  _525
REMARK  217  A    between atoms: _525  and  _526
REMARK  218  A    between atoms: _528  and  _530
REMARK  219  A    between atoms: _530  and  _531
REMARK  220  A    between atoms: _530  and  _533
REMARK  221  A    between atoms: _536  and  _538
REMARK  222  A    between atoms: _538  and  _539
REMARK  223  A    between atoms: _538  and  _541
REMARK  224  A    between atoms: _541  and  _542
REMARK  225  A    between atoms: _547  and  _548
REMARK  226  A    between atoms: _550  and  _552
REMARK  227  A    between atoms: _552  and  _553
REMARK  228  A    between atoms: _552  and  _555
REMARK  229  A    between atoms: _555  and  _556
REMARK                            x       y       z     vdW  Elec       q    Type
REMARK                         _______ _______ _______ _____ _____    ______ ____
ROOT
ATOM      1  CA  ASP A   1      28.756 -24.604  29.837  0.00  0.00    +0.144 C 
ENDROOT
BRANCH   1   2
ATOM      2  N   ASP A   1      27.358 -24.565  29.390  0.00  0.00    -0.239 NA
ATOM      3  H   ASP A   1      26.950 -23.656  29.092  0.00  0.00    +0.142 HD
ENDBRANCH   1   2
BRANCH   1   4
ATOM      4  C   ASP A   1      28.802 -24.533  31.357  0.00  0.00    +0.225 C 
ATOM      5  O   ASP A   1      29.143 -23.515  31.967  0.00  0.00    -0.287 OA
ENDBRANCH   1   4
BRANCH   1   6
ATOM      6  CB  ASP A   1      29.598 -23.509  29.133  0.00  0.00    +0.139 C 
BRANCH   6   7
ATOM      7  CG  ASP A   1      31.087 -23.671  29.304  0.00  0.00    +0.367 C 
ATOM      8  OD2 ASP A   1      31.523 -24.754  29.763  0.00  0.00    -0.246 OA
ATOM      9  OD1 ASP A   1      31.824 -22.735  28.951  0.00  0.00    -0.246 OA
ENDBRANCH   6   7
ENDBRANCH   1   6
TORSDOF 4
REMARK  Name = ../refined-set-2016/4x6n/4x6n_pocket.pdb
REMARK  229 active torsions:
REMARK  status: ('A' for Active; 'I' for Inactive)
REMARK    1  A    between atoms: _1  and  _5
REMARK    2  A    between atoms: _5  and  _6
REMARK    3  A    between atoms: _5  and  _8
REMARK    4  A    between atoms: _8  and  _9
REMARK    5  A    between atoms: _12  and  _14
REMARK    6  A    between atoms: _14  and  _15
REMARK    7  A    between atoms: _14  and  _17
REMARK    8  A    between atoms: _20  and  _22
REMARK    9  A    between atoms: _22  and  _23
REMARK   10  A    between atoms: _22  and  _25
REMARK   11  A    between atoms: _25  and  _26
REMARK   12  A    between atoms: _29  and  _31
REMARK   13  A    between atoms: _31  and  _32
REMARK   14  A    between atoms: _31  and  _34
REMARK   15  A    between atoms: _34  and  _35
REMARK   16  A    between atoms: _38  and  _40
REMARK   17  A    between atoms: _40  and  _41
REMARK   18  A    between atoms: _40  and  _43
REMARK   19  A    between atoms: _43  and  _44
REMARK   20  A    between atoms: _47  and  _49
REMARK   21  A    between atoms: _49  and  _50
REMARK   22  A    between atoms: _49  and  _52
REMARK   23  A    between atoms: _52  and  _53
REMARK   24  A    between atoms: _53  and  _54
REMARK   25  A    between atoms: _59  and  _61
REMARK   26  A    between atoms: _61  and  _62
REMARK   27  A    between atoms: _61  and  _64
REMARK   28  A    between atoms: _64  and  _65
REMARK   29  A    between atoms: _65  and  _66
REMARK   30  A    between atoms: _66  and  _67
REMARK   31  A    between atoms: _76  and  _78
REMARK   32  A    between atoms: _78  and  _79
REMARK   33  A    between atoms: _78  and  _81
REMARK   34  A    between atoms: _81  and  _82
REMARK   35  A    between atoms: _87  and  _89
REMARK   36  A    between atoms: _89  and  _90
REMARK   37  A    between atoms: _89  and  _92
REMARK   38  A    between atoms: _92  and  _93
REMARK   39  A    between atoms: _96  and  _98
REMARK   40  A    between atoms: _98  and  _99
REMARK   41  A    between atoms: _98  and  _101
REMARK   42  A    between atoms: _101  and  _102
REMARK   43  A    between atoms: _102  and  _137
REMARK   44  A    between atoms: _103  and  _105
REMARK   45  A    between atoms: _105  and  _106
REMARK   46  A    between atoms: _108  and  _110
REMARK   47  A    between atoms: _110  and  _111
REMARK   48  A    between atoms: _114  and  _116
REMARK   49  A    between atoms: _116  and  _117
REMARK   50  A    between atoms: _120  and  _122
REMARK   51  A    between atoms: _122  and  _123
REMARK   52  A    between atoms: _122  and  _125
REMARK   53  A    between atoms: _125  and  _126
REMARK   54  A    between atoms: _131  and  _133
REMARK   55  A    between atoms: _133  and  _134
REMARK   56  A    between atoms: _133  and  _136
REMARK   57  A    between atoms: _136  and  _137
REMARK   58  A    between atoms: _138  and  _140
REMARK   59  A    between atoms: _140  and  _141
REMARK   60  A    between atoms: _140  and  _143
REMARK   61  A    between atoms: _143  and  _144
REMARK   62  A    between atoms: _150  and  _152
REMARK   63  A    between atoms: _152  and  _153
REMARK   64  A    between atoms: _152  and  _155
REMARK   65  A    between atoms: _155  and  _156
REMARK   66  A    between atoms: _161  and  _162
REMARK   67  A    between atoms: _164  and  _166
REMARK   68  A    between atoms: _166  and  _167
REMARK   69  A    between atoms: _169  and  _171
REMARK   70  A    between atoms: _171  and  _172
REMARK   71  A    between atoms: _171  and  _174
REMARK   72  A    between atoms: _177  and  _179
REMARK   73  A    between atoms: _179  and  _180
REMARK   74  A    between atoms: _183  and  _185
REMARK   75  A    between atoms: _185  and  _186
REMARK   76  A    between atoms: _185  and  _188
REMARK   77  A    between atoms: _188  and  _189
REMARK   78  A    between atoms: _192  and  _194
REMARK   79  A    between atoms: _194  and  _195
REMARK   80  A    between atoms: _194  and  _197
REMARK   81  A    between atoms: _200  and  _202
REMARK   82  A    between atoms: _202  and  _203
REMARK   83  A    between atoms: _202  and  _205
REMARK   84  A    between atoms: _205  and  _206
REMARK   85  A    between atoms: _216  and  _218
REMARK   86  A    between atoms: _218  and  _219
REMARK   87  A    between atoms: _221  and  _223
REMARK   88  A    between atoms: _223  and  _224
REMARK   89  A    between atoms: _223  and  _226
REMARK   90  A    between atoms: _226  and  _227
REMARK   91  A    between atoms: _232  and  _233
REMARK   92  A    between atoms: _235  and  _237
REMARK   93  A    between atoms: _237  and  _238
REMARK   94  A    between atoms: _237  and  _240
REMARK   95  A    between atoms: _240  and  _241
REMARK   96  A    between atoms: _241  and  _242
REMARK   97  A    between atoms: _242  and  _243
REMARK   98  A    between atoms: _243  and  _244
REMARK   99  A    between atoms: _248  and  _250
REMARK  100  A    between atoms: _250  and  _251
REMARK  101  A    between atoms: _250  and  _253
REMARK  102  A    between atoms: _253  and  _254
REMARK  103  A    between atoms: _257  and  _259
REMARK  104  A    between atoms: _259  and  _260
REMARK  105  A    between atoms: _259  and  _262
REMARK  106  A    between atoms: _262  and  _263
REMARK  107  A    between atoms: _266  and  _268
REMARK  108  A    between atoms: _268  and  _269
REMARK  109  A    between atoms: _268  and  _271
REMARK  110  A    between atoms: _271  and  _272
REMARK  111  A    between atoms: _272  and  _273
REMARK  112  A    between atoms: _273  and  _274
REMARK  113  A    between atoms: _274  and  _275
REMARK  114  A    between atoms: _279  and  _281
REMARK  115  A    between atoms: _281  and  _282
REMARK  116  A    between atoms: _281  and  _284
REMARK  117  A    between atoms: _284  and  _285
REMARK  118  A    between atoms: _288  and  _290
REMARK  119  A    between atoms: _290  and  _291
REMARK  120  A    between atoms: _290  and  _293
REMARK  121  A    between atoms: _293  and  _294
REMARK  122  A    between atoms: _294  and  _295
REMARK  123  A    between atoms: _300  and  _302
REMARK  124  A    between atoms: _302  and  _303
REMARK  125  A    between atoms: _302  and  _305
REMARK  126  A    between atoms: _305  and  _306
REMARK  127  A    between atoms: _311  and  _312
REMARK  128  A    between atoms: _314  and  _316
REMARK  129  A    between atoms: _316  and  _317
REMARK  130  A    between atoms: _316  and  _319
REMARK  131  A    between atoms: _319  and  _320
REMARK  132  A    between atoms: _323  and  _325
REMARK  133  A    between atoms: _325  and  _326
REMARK  134  A    between atoms: _325  and  _328
REMARK  135  A    between atoms: _330  and  _332
REMARK  136  A    between atoms: _332  and  _333
REMARK  137  A    between atoms: _336  and  _338
REMARK  138  A    between atoms: _338  and  _339
REMARK  139  A    between atoms: _338  and  _341
REMARK  140  A    between atoms: _341  and  _342
REMARK  141  A    between atoms: _345  and  _347
REMARK  142  A    between atoms: _347  and  _348
REMARK  143  A    between atoms: _351  and  _353
REMARK  144  A    between atoms: _353  and  _354
REMARK  145  A    between atoms: _353  and  _356
REMARK  146  A    between atoms: _356  and  _357
REMARK  147  A    between atoms: _357  and  _480
REMARK  148  A    between atoms: _358  and  _360
REMARK  149  A    between atoms: _360  and  _361
REMARK  150  A    between atoms: _360  and  _363
REMARK  151  A    between atoms: _363  and  _364
REMARK  152  A    between atoms: _364  and  _365
REMARK  153  A    between atoms: _365  and  _366
REMARK  154  A    between atoms: _366  and  _367
REMARK  155  A    between atoms: _371  and  _373
REMARK  156  A    between atoms: _373  and  _374
REMARK  157  A    between atoms: _376  and  _378
REMARK  158  A    between atoms: _378  and  _379
REMARK  159  A    between atoms: _378  and  _381
REMARK  160  A    between atoms: _381  and  _382
REMARK  161  A    between atoms: _385  and  _387
REMARK  162  A    between atoms: _387  and  _388
REMARK  163  A    between atoms: _387  and  _390
REMARK  164  A    between atoms: _390  and  _391
REMARK  165  A    between atoms: _393  and  _395
REMARK  166  A    between atoms: _395  and  _396
REMARK  167  A    between atoms: _398  and  _400
REMARK  168  A    between atoms: _400  and  _401
REMARK  169  A    between atoms: _403  and  _405
REMARK  170  A    between atoms: _405  and  _406
REMARK  171  A    between atoms: _405  and  _408
REMARK  172  A    between atoms: _408  and  _409
REMARK  173  A    between atoms: _412  and  _414
REMARK  174  A    between atoms: _414  and  _415
REMARK  175  A    between atoms: _414  and  _417
REMARK  176  A    between atoms: _417  and  _418
REMARK  177  A    between atoms: _421  and  _423
REMARK  178  A    between atoms: _423  and  _424
REMARK  179  A    between atoms: _423  and  _426
REMARK  180  A    between atoms: _426  and  _427
REMARK  181  A    between atoms: _430  and  _432
REMARK  182  A    between atoms: _432  and  _433
REMARK  183  A    between atoms: _432  and  _435
REMARK  184  A    between atoms: _435  and  _436
REMARK  185  A    between atoms: _438  and  _440
REMARK  186  A    between atoms: _440  and  _441
REMARK  187  A    between atoms: _440  and  _443
REMARK  188  A    between atoms: _443  and  _444
REMARK  189  A    between atoms: _454  and  _456
REMARK  190  A    between atoms: _456  and  _457
REMARK  191  A    between atoms: _459  and  _461
REMARK  192  A    between atoms: _461  and  _462
REMARK  193  A    between atoms: _461  and  _464
REMARK  194  A    between atoms: _464  and  _465
REMARK  195  A    between atoms: _465  and  _466
REMARK  196  A    between atoms: _469  and  _471
REMARK  197  A    between atoms: _471  and  _472
REMARK  198  A    between atoms: _474  and  _476
REMARK  199  A    between atoms: _476  and  _477
REMARK  200  A    between atoms: _476  and  _479
REMARK  201  A    between atoms: _479  and  _480
REMARK  202  A    between atoms: _481  and  _483
REMARK  203  A    between atoms: _483  and  _484
REMARK  204  A    between atoms: _487  and  _489
REMARK  205  A    between atoms: _489  and  _490
REMARK  206  A    between atoms: _489  and  _492
REMARK  207  A    between atoms: _492  and  _493
REMARK  208  A    between atoms: _493  and  _494
REMARK  209  A    between atoms: _499  and  _501
REMARK  210  A    between atoms: _501  and  _502
REMARK  211  A    between atoms: _501  and  _504
REMARK  212  A    between atoms: _504  and  _505
REMARK  213  A    between atoms: _505  and  _506
REMARK  214  A    between atoms: _506  and  _507
REMARK  215  A    between atoms: _517  and  _518
REMARK  216  A    between atoms: _523  and  _525
REMARK  217  A    between atoms: _525  and  _526
REMARK  218  A    between atoms: _528  and  _530
REMARK  219  A    between atoms: _530  and  _531
REMARK  220  A    between atoms: _530  and  _533
REMARK  221  A    between atoms: _536  and  _538
REMARK  222  A    between atoms: _538  and  _539
REMARK  223  A    between atoms: _538  and  _541
REMARK  224  A    between atoms: _541  and  _542
REMARK  225  A    between atoms: _547  and  _548
REMARK  226  A    between atoms: _550  and  _552
REMARK  227  A    between atoms: _552  and  _553
REMARK  228  A    between atoms: _552  and  _555
REMARK  229  A    between atoms: _555  and  _556
REMARK                            x       y       z     vdW  Elec       q    Type
REMARK                         _______ _______ _______ _____ _____    ______ ____
ROOT
ATOM      1  CA  VAL A   1      34.664 -10.889  37.496  0.00  0.00    +0.133 C 
ENDROOT
BRANCH   1   2
ATOM      2  CB  VAL A   1      34.608 -10.981  35.947  0.00  0.00    +0.023 C 
ATOM      3  CG2 VAL A   1      35.070 -12.358  35.474  0.00  0.00    +0.002 C 
ATOM      4  CG1 VAL A   1      35.410  -9.861  35.269  0.00  0.00    +0.002 C 
ENDBRANCH   1   2
BRANCH   1   5
ATOM      5  N   VAL A   1      34.054  -9.687  38.064  0.00  0.00    -0.239 NA
ATOM      6  H   VAL A   1      34.416  -8.764  37.750  0.00  0.00    +0.142 HD
ENDBRANCH   1   5
BRANCH   1   7
ATOM      7  C   VAL A   1      36.073 -11.046  38.094  0.00  0.00    +0.224 C 
ATOM      8  O   VAL A   1      36.836 -10.078  38.155  0.00  0.00    -0.287 OA
ENDBRANCH   1   7
TORSDOF 3
REMARK  Name = ../refined-set-2016/4x6n/4x6n_pocket.pdb
REMARK  229 active torsions:
REMARK  status: ('A' for Active; 'I' for Inactive)
REMARK    1  A    between atoms: _1  and  _5
REMARK    2  A    between atoms: _5  and  _6
REMARK    3  A    between atoms: _5  and  _8
REMARK    4  A    between atoms: _8  and  _9
REMARK    5  A    between atoms: _12  and  _14
REMARK    6  A    between atoms: _14  and  _15
REMARK    7  A    between atoms: _14  and  _17
REMARK    8  A    between atoms: _20  and  _22
REMARK    9  A    between atoms: _22  and  _23
REMARK   10  A    between atoms: _22  and  _25
REMARK   11  A    between atoms: _25  and  _26
REMARK   12  A    between atoms: _29  and  _31
REMARK   13  A    between atoms: _31  and  _32
REMARK   14  A    between atoms: _31  and  _34
REMARK   15  A    between atoms: _34  and  _35
REMARK   16  A    between atoms: _38  and  _40
REMARK   17  A    between atoms: _40  and  _41
REMARK   18  A    between atoms: _40  and  _43
REMARK   19  A    between atoms: _43  and  _44
REMARK   20  A    between atoms: _47  and  _49
REMARK   21  A    between atoms: _49  and  _50
REMARK   22  A    between atoms: _49  and  _52
REMARK   23  A    between atoms: _52  and  _53
REMARK   24  A    between atoms: _53  and  _54
REMARK   25  A    between atoms: _59  and  _61
REMARK   26  A    between atoms: _61  and  _62
REMARK   27  A    between atoms: _61  and  _64
REMARK   28  A    between atoms: _64  and  _65
REMARK   29  A    between atoms: _65  and  _66
REMARK   30  A    between atoms: _66  and  _67
REMARK   31  A    between atoms: _76  and  _78
REMARK   32  A    between atoms: _78  and  _79
REMARK   33  A    between atoms: _78  and  _81
REMARK   34  A    between atoms: _81  and  _82
REMARK   35  A    between atoms: _87  and  _89
REMARK   36  A    between atoms: _89  and  _90
REMARK   37  A    between atoms: _89  and  _92
REMARK   38  A    between atoms: _92  and  _93
REMARK   39  A    between atoms: _96  and  _98
REMARK   40  A    between atoms: _98  and  _99
REMARK   41  A    between atoms: _98  and  _101
REMARK   42  A    between atoms: _101  and  _102
REMARK   43  A    between atoms: _102  and  _137
REMARK   44  A    between atoms: _103  and  _105
REMARK   45  A    between atoms: _105  and  _106
REMARK   46  A    between atoms: _108  and  _110
REMARK   47  A    between atoms: _110  and  _111
REMARK   48  A    between atoms: _114  and  _116
REMARK   49  A    between atoms: _116  and  _117
REMARK   50  A    between atoms: _120  and  _122
REMARK   51  A    between atoms: _122  and  _123
REMARK   52  A    between atoms: _122  and  _125
REMARK   53  A    between atoms: _125  and  _126
REMARK   54  A    between atoms: _131  and  _133
REMARK   55  A    between atoms: _133  and  _134
REMARK   56  A    between atoms: _133  and  _136
REMARK   57  A    between atoms: _136  and  _137
REMARK   58  A    between atoms: _138  and  _140
REMARK   59  A    between atoms: _140  and  _141
REMARK   60  A    between atoms: _140  and  _143
REMARK   61  A    between atoms: _143  and  _144
REMARK   62  A    between atoms: _150  and  _152
REMARK   63  A    between atoms: _152  and  _153
REMARK   64  A    between atoms: _152  and  _155
REMARK   65  A    between atoms: _155  and  _156
REMARK   66  A    between atoms: _161  and  _162
REMARK   67  A    between atoms: _164  and  _166
REMARK   68  A    between atoms: _166  and  _167
REMARK   69  A    between atoms: _169  and  _171
REMARK   70  A    between atoms: _171  and  _172
REMARK   71  A    between atoms: _171  and  _174
REMARK   72  A    between atoms: _177  and  _179
REMARK   73  A    between atoms: _179  and  _180
REMARK   74  A    between atoms: _183  and  _185
REMARK   75  A    between atoms: _185  and  _186
REMARK   76  A    between atoms: _185  and  _188
REMARK   77  A    between atoms: _188  and  _189
REMARK   78  A    between atoms: _192  and  _194
REMARK   79  A    between atoms: _194  and  _195
REMARK   80  A    between atoms: _194  and  _197
REMARK   81  A    between atoms: _200  and  _202
REMARK   82  A    between atoms: _202  and  _203
REMARK   83  A    between atoms: _202  and  _205
REMARK   84  A    between atoms: _205  and  _206
REMARK   85  A    between atoms: _216  and  _218
REMARK   86  A    between atoms: _218  and  _219
REMARK   87  A    between atoms: _221  and  _223
REMARK   88  A    between atoms: _223  and  _224
REMARK   89  A    between atoms: _223  and  _226
REMARK   90  A    between atoms: _226  and  _227
REMARK   91  A    between atoms: _232  and  _233
REMARK   92  A    between atoms: _235  and  _237
REMARK   93  A    between atoms: _237  and  _238
REMARK   94  A    between atoms: _237  and  _240
REMARK   95  A    between atoms: _240  and  _241
REMARK   96  A    between atoms: _241  and  _242
REMARK   97  A    between atoms: _242  and  _243
REMARK   98  A    between atoms: _243  and  _244
REMARK   99  A    between atoms: _248  and  _250
REMARK  100  A    between atoms: _250  and  _251
REMARK  101  A    between atoms: _250  and  _253
REMARK  102  A    between atoms: _253  and  _254
REMARK  103  A    between atoms: _257  and  _259
REMARK  104  A    between atoms: _259  and  _260
REMARK  105  A    between atoms: _259  and  _262
REMARK  106  A    between atoms: _262  and  _263
REMARK  107  A    between atoms: _266  and  _268
REMARK  108  A    between atoms: _268  and  _269
REMARK  109  A    between atoms: _268  and  _271
REMARK  110  A    between atoms: _271  and  _272
REMARK  111  A    between atoms: _272  and  _273
REMARK  112  A    between atoms: _273  and  _274
REMARK  113  A    between atoms: _274  and  _275
REMARK  114  A    between atoms: _279  and  _281
REMARK  115  A    between atoms: _281  and  _282
REMARK  116  A    between atoms: _281  and  _284
REMARK  117  A    between atoms: _284  and  _285
REMARK  118  A    between atoms: _288  and  _290
REMARK  119  A    between atoms: _290  and  _291
REMARK  120  A    between atoms: _290  and  _293
REMARK  121  A    between atoms: _293  and  _294
REMARK  122  A    between atoms: _294  and  _295
REMARK  123  A    between atoms: _300  and  _302
REMARK  124  A    between atoms: _302  and  _303
REMARK  125  A    between atoms: _302  and  _305
REMARK  126  A    between atoms: _305  and  _306
REMARK  127  A    between atoms: _311  and  _312
REMARK  128  A    between atoms: _314  and  _316
REMARK  129  A    between atoms: _316  and  _317
REMARK  130  A    between atoms: _316  and  _319
REMARK  131  A    between atoms: _319  and  _320
REMARK  132  A    between atoms: _323  and  _325
REMARK  133  A    between atoms: _325  and  _326
REMARK  134  A    between atoms: _325  and  _328
REMARK  135  A    between atoms: _330  and  _332
REMARK  136  A    between atoms: _332  and  _333
REMARK  137  A    between atoms: _336  and  _338
REMARK  138  A    between atoms: _338  and  _339
REMARK  139  A    between atoms: _338  and  _341
REMARK  140  A    between atoms: _341  and  _342
REMARK  141  A    between atoms: _345  and  _347
REMARK  142  A    between atoms: _347  and  _348
REMARK  143  A    between atoms: _351  and  _353
REMARK  144  A    between atoms: _353  and  _354
REMARK  145  A    between atoms: _353  and  _356
REMARK  146  A    between atoms: _356  and  _357
REMARK  147  A    between atoms: _357  and  _480
REMARK  148  A    between atoms: _358  and  _360
REMARK  149  A    between atoms: _360  and  _361
REMARK  150  A    between atoms: _360  and  _363
REMARK  151  A    between atoms: _363  and  _364
REMARK  152  A    between atoms: _364  and  _365
REMARK  153  A    between atoms: _365  and  _366
REMARK  154  A    between atoms: _366  and  _367
REMARK  155  A    between atoms: _371  and  _373
REMARK  156  A    between atoms: _373  and  _374
REMARK  157  A    between atoms: _376  and  _378
REMARK  158  A    between atoms: _378  and  _379
REMARK  159  A    between atoms: _378  and  _381
REMARK  160  A    between atoms: _381  and  _382
REMARK  161  A    between atoms: _385  and  _387
REMARK  162  A    between atoms: _387  and  _388
REMARK  163  A    between atoms: _387  and  _390
REMARK  164  A    between atoms: _390  and  _391
REMARK  165  A    between atoms: _393  and  _395
REMARK  166  A    between atoms: _395  and  _396
REMARK  167  A    between atoms: _398  and  _400
REMARK  168  A    between atoms: _400  and  _401
REMARK  169  A    between atoms: _403  and  _405
REMARK  170  A    between atoms: _405  and  _406
REMARK  171  A    between atoms: _405  and  _408
REMARK  172  A    between atoms: _408  and  _409
REMARK  173  A    between atoms: _412  and  _414
REMARK  174  A    between atoms: _414  and  _415
REMARK  175  A    between atoms: _414  and  _417
REMARK  176  A    between atoms: _417  and  _418
REMARK  177  A    between atoms: _421  and  _423
REMARK  178  A    between atoms: _423  and  _424
REMARK  179  A    between atoms: _423  and  _426
REMARK  180  A    between atoms: _426  and  _427
REMARK  181  A    between atoms: _430  and  _432
REMARK  182  A    between atoms: _432  and  _433
REMARK  183  A    between atoms: _432  and  _435
REMARK  184  A    between atoms: _435  and  _436
REMARK  185  A    between atoms: _438  and  _440
REMARK  186  A    between atoms: _440  and  _441
REMARK  187  A    between atoms: _440  and  _443
REMARK  188  A    between atoms: _443  and  _444
REMARK  189  A    between atoms: _454  and  _456
REMARK  190  A    between atoms: _456  and  _457
REMARK  191  A    between atoms: _459  and  _461
REMARK  192  A    between atoms: _461  and  _462
REMARK  193  A    between atoms: _461  and  _464
REMARK  194  A    between atoms: _464  and  _465
REMARK  195  A    between atoms: _465  and  _466
REMARK  196  A    between atoms: _469  and  _471
REMARK  197  A    between atoms: _471  and  _472
REMARK  198  A    between atoms: _474  and  _476
REMARK  199  A    between atoms: _476  and  _477
REMARK  200  A    between atoms: _476  and  _479
REMARK  201  A    between atoms: _479  and  _480
REMARK  202  A    between atoms: _481  and  _483
REMARK  203  A    between atoms: _483  and  _484
REMARK  204  A    between atoms: _487  and  _489
REMARK  205  A    between atoms: _489  and  _490
REMARK  206  A    between atoms: _489  and  _492
REMARK  207  A    between atoms: _492  and  _493
REMARK  208  A    between atoms: _493  and  _494
REMARK  209  A    between atoms: _499  and  _501
REMARK  210  A    between atoms: _501  and  _502
REMARK  211  A    between atoms: _501  and  _504
REMARK  212  A    between atoms: _504  and  _505
REMARK  213  A    between atoms: _505  and  _506
REMARK  214  A    between atoms: _506  and  _507
REMARK  215  A    between atoms: _517  and  _518
REMARK  216  A    between atoms: _523  and  _525
REMARK  217  A    between atoms: _525  and  _526
REMARK  218  A    between atoms: _528  and  _530
REMARK  219  A    between atoms: _530  and  _531
REMARK  220  A    between atoms: _530  and  _533
REMARK  221  A    between atoms: _536  and  _538
REMARK  222  A    between atoms: _538  and  _539
REMARK  223  A    between atoms: _538  and  _541
REMARK  224  A    between atoms: _541  and  _542
REMARK  225  A    between atoms: _547  and  _548
REMARK  226  A    between atoms: _550  and  _552
REMARK  227  A    between atoms: _552  and  _553
REMARK  228  A    between atoms: _552  and  _555
REMARK  229  A    between atoms: _555  and  _556
REMARK                            x       y       z     vdW  Elec       q    Type
REMARK                         _______ _______ _______ _____ _____    ______ ____
ROOT
ATOM      1  C   TRP A   1      44.605 -15.579  36.425  0.00  0.00    +0.239 C 
ATOM      2  O   TRP A   1      45.750 -15.831  36.089  0.00  0.00    -0.274 OA
ATOM      3  N   GLY A   2      43.635 -15.342  35.552  0.00  0.00    -0.296 N 
ATOM      4  H   GLY A   2      42.681 -15.135  35.911  0.00  0.00    +0.150 HD
ENDROOT
BRANCH   1   5
ATOM      5  CA  TRP A   1      44.220 -15.554  37.921  0.00  0.00    +0.149 C 
BRANCH   5   6
ATOM      6  N   TRP A   1      42.761 -15.621  38.074  0.00  0.00    -0.238 NA
ATOM      7  H   TRP A   1      42.296 -16.546  37.972  0.00  0.00    +0.142 HD
ENDBRANCH   5   6
BRANCH   5   8
ATOM      8  CB  TRP A   1      44.881 -16.731  38.646  0.00  0.00    +0.054 C 
BRANCH   8   9
ATOM      9  CG  TRP A   1      44.772 -16.678  40.141  0.00  0.00    -0.002 A 
ATOM     10  CD1 TRP A   1      45.676 -16.136  41.016  0.00  0.00    +0.068 A 
ATOM     11  NE1 TRP A   1      45.263 -16.350  42.315  0.00  0.00    -0.352 N 
ATOM     12  HE1 TRP A   1      45.765 -16.032  43.168  0.00  0.00    +0.166 HD
ATOM     13  CE2 TRP A   1      44.084 -17.050  42.299  0.00  0.00    +0.056 A 
ATOM     14  CZ2 TRP A   1      43.291 -17.520  43.355  0.00  0.00    +0.017 A 
ATOM     15  CH2 TRP A   1      42.143 -18.223  43.029  0.00  0.00    +0.001 A 
ATOM     16  CZ3 TRP A   1      41.775 -18.452  41.690  0.00  0.00    +0.000 A 
ATOM     17  CE3 TRP A   1      42.579 -18.013  40.640  0.00  0.00    +0.001 A 
ATOM     18  CD2 TRP A   1      43.747 -17.278  40.940  0.00  0.00    +0.013 A 
ENDBRANCH   8   9
ENDBRANCH   5   8
ENDBRANCH   1   5
BRANCH   3  19
ATOM     19  CA  GLY A   2      43.850 -15.360  34.112  0.00  0.00    +0.176 C 
BRANCH  19  20
ATOM     20  C   GLY A   2      44.734 -14.237  33.583  0.00  0.00    +0.243 C 
ATOM     21  O   GLY A   2      45.182 -13.359  34.329  0.00  0.00    -0.273 OA
ATOM     22  N   TYR A   3      44.978 -14.273  32.279  0.00  0.00    -0.298 N 
ATOM     23  H   TYR A   3      44.526 -15.036  31.736  0.00  0.00    +0.150 HD
BRANCH  22  24
ATOM     24  CA  TYR A   3      45.824 -13.339  31.533  0.00  0.00    +0.141 C 
BRANCH  24  25
ATOM     25  C   TYR A   3      45.270 -11.913  31.624  0.00  0.00    +0.227 C 
ATOM     26  O   TYR A   3      44.048 -11.714  31.694  0.00  0.00    -0.286 OA
ENDBRANCH  24  25
BRANCH  24  27
ATOM     27  CB  TYR A   3      45.829 -13.772  30.054  0.00  0.00    +0.054 C 
BRANCH  27  28
ATOM     28  CG  TYR A   3      46.592 -15.032  29.676  0.00  0.00    -0.020 A 
ATOM     29  CD2 TYR A   3      46.897 -16.005  30.627  0.00  0.00    -0.001 A 
ATOM     30  CE2 TYR A   3      47.577 -17.175  30.277  0.00  0.00    +0.036 A 
ATOM     31  CZ  TYR A   3      47.916 -17.405  28.950  0.00  0.00    +0.134 A 
ATOM     32  CE1 TYR A   3      47.627 -16.452  27.987  0.00  0.00    +0.036 A 
ATOM     33  CD1 TYR A   3      46.943 -15.285  28.349  0.00  0.00    -0.001 A 
BRANCH  31  34
ATOM     34  OH  TYR A   3      48.608 -18.541  28.602  0.00  0.00    -0.506 OA
ATOM     35  HH  TYR A   3      48.098 -19.039  27.915  0.00  0.00    +0.292 HD
ENDBRANCH  31  34
ENDBRANCH  27  28
ENDBRANCH  24  27
ENDBRANCH  22  24
ENDBRANCH  19  20
ENDBRANCH   3  19
TORSDOF 11
REMARK  Name = ../refined-set-2016/4x6n/4x6n_pocket.pdb
REMARK  229 active torsions:
REMARK  status: ('A' for Active; 'I' for Inactive)
REMARK    1  A    between atoms: _1  and  _5
REMARK    2  A    between atoms: _5  and  _6
REMARK    3  A    between atoms: _5  and  _8
REMARK    4  A    between atoms: _8  and  _9
REMARK    5  A    between atoms: _12  and  _14
REMARK    6  A    between atoms: _14  and  _15
REMARK    7  A    between atoms: _14  and  _17
REMARK    8  A    between atoms: _20  and  _22
REMARK    9  A    between atoms: _22  and  _23
REMARK   10  A    between atoms: _22  and  _25
REMARK   11  A    between atoms: _25  and  _26
REMARK   12  A    between atoms: _29  and  _31
REMARK   13  A    between atoms: _31  and  _32
REMARK   14  A    between atoms: _31  and  _34
REMARK   15  A    between atoms: _34  and  _35
REMARK   16  A    between atoms: _38  and  _40
REMARK   17  A    between atoms: _40  and  _41
REMARK   18  A    between atoms: _40  and  _43
REMARK   19  A    between atoms: _43  and  _44
REMARK   20  A    between atoms: _47  and  _49
REMARK   21  A    between atoms: _49  and  _50
REMARK   22  A    between atoms: _49  and  _52
REMARK   23  A    between atoms: _52  and  _53
REMARK   24  A    between atoms: _53  and  _54
REMARK   25  A    between atoms: _59  and  _61
REMARK   26  A    between atoms: _61  and  _62
REMARK   27  A    between atoms: _61  and  _64
REMARK   28  A    between atoms: _64  and  _65
REMARK   29  A    between atoms: _65  and  _66
REMARK   30  A    between atoms: _66  and  _67
REMARK   31  A    between atoms: _76  and  _78
REMARK   32  A    between atoms: _78  and  _79
REMARK   33  A    between atoms: _78  and  _81
REMARK   34  A    between atoms: _81  and  _82
REMARK   35  A    between atoms: _87  and  _89
REMARK   36  A    between atoms: _89  and  _90
REMARK   37  A    between atoms: _89  and  _92
REMARK   38  A    between atoms: _92  and  _93
REMARK   39  A    between atoms: _96  and  _98
REMARK   40  A    between atoms: _98  and  _99
REMARK   41  A    between atoms: _98  and  _101
REMARK   42  A    between atoms: _101  and  _102
REMARK   43  A    between atoms: _102  and  _137
REMARK   44  A    between atoms: _103  and  _105
REMARK   45  A    between atoms: _105  and  _106
REMARK   46  A    between atoms: _108  and  _110
REMARK   47  A    between atoms: _110  and  _111
REMARK   48  A    between atoms: _114  and  _116
REMARK   49  A    between atoms: _116  and  _117
REMARK   50  A    between atoms: _120  and  _122
REMARK   51  A    between atoms: _122  and  _123
REMARK   52  A    between atoms: _122  and  _125
REMARK   53  A    between atoms: _125  and  _126
REMARK   54  A    between atoms: _131  and  _133
REMARK   55  A    between atoms: _133  and  _134
REMARK   56  A    between atoms: _133  and  _136
REMARK   57  A    between atoms: _136  and  _137
REMARK   58  A    between atoms: _138  and  _140
REMARK   59  A    between atoms: _140  and  _141
REMARK   60  A    between atoms: _140  and  _143
REMARK   61  A    between atoms: _143  and  _144
REMARK   62  A    between atoms: _150  and  _152
REMARK   63  A    between atoms: _152  and  _153
REMARK   64  A    between atoms: _152  and  _155
REMARK   65  A    between atoms: _155  and  _156
REMARK   66  A    between atoms: _161  and  _162
REMARK   67  A    between atoms: _164  and  _166
REMARK   68  A    between atoms: _166  and  _167
REMARK   69  A    between atoms: _169  and  _171
REMARK   70  A    between atoms: _171  and  _172
REMARK   71  A    between atoms: _171  and  _174
REMARK   72  A    between atoms: _177  and  _179
REMARK   73  A    between atoms: _179  and  _180
REMARK   74  A    between atoms: _183  and  _185
REMARK   75  A    between atoms: _185  and  _186
REMARK   76  A    between atoms: _185  and  _188
REMARK   77  A    between atoms: _188  and  _189
REMARK   78  A    between atoms: _192  and  _194
REMARK   79  A    between atoms: _194  and  _195
REMARK   80  A    between atoms: _194  and  _197
REMARK   81  A    between atoms: _200  and  _202
REMARK   82  A    between atoms: _202  and  _203
REMARK   83  A    between atoms: _202  and  _205
REMARK   84  A    between atoms: _205  and  _206
REMARK   85  A    between atoms: _216  and  _218
REMARK   86  A    between atoms: _218  and  _219
REMARK   87  A    between atoms: _221  and  _223
REMARK   88  A    between atoms: _223  and  _224
REMARK   89  A    between atoms: _223  and  _226
REMARK   90  A    between atoms: _226  and  _227
REMARK   91  A    between atoms: _232  and  _233
REMARK   92  A    between atoms: _235  and  _237
REMARK   93  A    between atoms: _237  and  _238
REMARK   94  A    between atoms: _237  and  _240
REMARK   95  A    between atoms: _240  and  _241
REMARK   96  A    between atoms: _241  and  _242
REMARK   97  A    between atoms: _242  and  _243
REMARK   98  A    between atoms: _243  and  _244
REMARK   99  A    between atoms: _248  and  _250
REMARK  100  A    between atoms: _250  and  _251
REMARK  101  A    between atoms: _250  and  _253
REMARK  102  A    between atoms: _253  and  _254
REMARK  103  A    between atoms: _257  and  _259
REMARK  104  A    between atoms: _259  and  _260
REMARK  105  A    between atoms: _259  and  _262
REMARK  106  A    between atoms: _262  and  _263
REMARK  107  A    between atoms: _266  and  _268
REMARK  108  A    between atoms: _268  and  _269
REMARK  109  A    between atoms: _268  and  _271
REMARK  110  A    between atoms: _271  and  _272
REMARK  111  A    between atoms: _272  and  _273
REMARK  112  A    between atoms: _273  and  _274
REMARK  113  A    between atoms: _274  and  _275
REMARK  114  A    between atoms: _279  and  _281
REMARK  115  A    between atoms: _281  and  _282
REMARK  116  A    between atoms: _281  and  _284
REMARK  117  A    between atoms: _284  and  _285
REMARK  118  A    between atoms: _288  and  _290
REMARK  119  A    between atoms: _290  and  _291
REMARK  120  A    between atoms: _290  and  _293
REMARK  121  A    between atoms: _293  and  _294
REMARK  122  A    between atoms: _294  and  _295
REMARK  123  A    between atoms: _300  and  _302
REMARK  124  A    between atoms: _302  and  _303
REMARK  125  A    between atoms: _302  and  _305
REMARK  126  A    between atoms: _305  and  _306
REMARK  127  A    between atoms: _311  and  _312
REMARK  128  A    between atoms: _314  and  _316
REMARK  129  A    between atoms: _316  and  _317
REMARK  130  A    between atoms: _316  and  _319
REMARK  131  A    between atoms: _319  and  _320
REMARK  132  A    between atoms: _323  and  _325
REMARK  133  A    between atoms: _325  and  _326
REMARK  134  A    between atoms: _325  and  _328
REMARK  135  A    between atoms: _330  and  _332
REMARK  136  A    between atoms: _332  and  _333
REMARK  137  A    between atoms: _336  and  _338
REMARK  138  A    between atoms: _338  and  _339
REMARK  139  A    between atoms: _338  and  _341
REMARK  140  A    between atoms: _341  and  _342
REMARK  141  A    between atoms: _345  and  _347
REMARK  142  A    between atoms: _347  and  _348
REMARK  143  A    between atoms: _351  and  _353
REMARK  144  A    between atoms: _353  and  _354
REMARK  145  A    between atoms: _353  and  _356
REMARK  146  A    between atoms: _356  and  _357
REMARK  147  A    between atoms: _357  and  _480
REMARK  148  A    between atoms: _358  and  _360
REMARK  149  A    between atoms: _360  and  _361
REMARK  150  A    between atoms: _360  and  _363
REMARK  151  A    between atoms: _363  and  _364
REMARK  152  A    between atoms: _364  and  _365
REMARK  153  A    between atoms: _365  and  _366
REMARK  154  A    between atoms: _366  and  _367
REMARK  155  A    between atoms: _371  and  _373
REMARK  156  A    between atoms: _373  and  _374
REMARK  157  A    between atoms: _376  and  _378
REMARK  158  A    between atoms: _378  and  _379
REMARK  159  A    between atoms: _378  and  _381
REMARK  160  A    between atoms: _381  and  _382
REMARK  161  A    between atoms: _385  and  _387
REMARK  162  A    between atoms: _387  and  _388
REMARK  163  A    between atoms: _387  and  _390
REMARK  164  A    between atoms: _390  and  _391
REMARK  165  A    between atoms: _393  and  _395
REMARK  166  A    between atoms: _395  and  _396
REMARK  167  A    between atoms: _398  and  _400
REMARK  168  A    between atoms: _400  and  _401
REMARK  169  A    between atoms: _403  and  _405
REMARK  170  A    between atoms: _405  and  _406
REMARK  171  A    between atoms: _405  and  _408
REMARK  172  A    between atoms: _408  and  _409
REMARK  173  A    between atoms: _412  and  _414
REMARK  174  A    between atoms: _414  and  _415
REMARK  175  A    between atoms: _414  and  _417
REMARK  176  A    between atoms: _417  and  _418
REMARK  177  A    between atoms: _421  and  _423
REMARK  178  A    between atoms: _423  and  _424
REMARK  179  A    between atoms: _423  and  _426
REMARK  180  A    between atoms: _426  and  _427
REMARK  181  A    between atoms: _430  and  _432
REMARK  182  A    between atoms: _432  and  _433
REMARK  183  A    between atoms: _432  and  _435
REMARK  184  A    between atoms: _435  and  _436
REMARK  185  A    between atoms: _438  and  _440
REMARK  186  A    between atoms: _440  and  _441
REMARK  187  A    between atoms: _440  and  _443
REMARK  188  A    between atoms: _443  and  _444
REMARK  189  A    between atoms: _454  and  _456
REMARK  190  A    between atoms: _456  and  _457
REMARK  191  A    between atoms: _459  and  _461
REMARK  192  A    between atoms: _461  and  _462
REMARK  193  A    between atoms: _461  and  _464
REMARK  194  A    between atoms: _464  and  _465
REMARK  195  A    between atoms: _465  and  _466
REMARK  196  A    between atoms: _469  and  _471
REMARK  197  A    between atoms: _471  and  _472
REMARK  198  A    between atoms: _474  and  _476
REMARK  199  A    between atoms: _476  and  _477
REMARK  200  A    between atoms: _476  and  _479
REMARK  201  A    between atoms: _479  and  _480
REMARK  202  A    between atoms: _481  and  _483
REMARK  203  A    between atoms: _483  and  _484
REMARK  204  A    between atoms: _487  and  _489
REMARK  205  A    between atoms: _489  and  _490
REMARK  206  A    between atoms: _489  and  _492
REMARK  207  A    between atoms: _492  and  _493
REMARK  208  A    between atoms: _493  and  _494
REMARK  209  A    between atoms: _499  and  _501
REMARK  210  A    between atoms: _501  and  _502
REMARK  211  A    between atoms: _501  and  _504
REMARK  212  A    between atoms: _504  and  _505
REMARK  213  A    between atoms: _505  and  _506
REMARK  214  A    between atoms: _506  and  _507
REMARK  215  A    between atoms: _517  and  _518
REMARK  216  A    between atoms: _523  and  _525
REMARK  217  A    between atoms: _525  and  _526
REMARK  218  A    between atoms: _528  and  _530
REMARK  219  A    between atoms: _530  and  _531
REMARK  220  A    between atoms: _530  and  _533
REMARK  221  A    between atoms: _536  and  _538
REMARK  222  A    between atoms: _538  and  _539
REMARK  223  A    between atoms: _538  and  _541
REMARK  224  A    between atoms: _541  and  _542
REMARK  225  A    between atoms: _547  and  _548
REMARK  226  A    between atoms: _550  and  _552
REMARK  227  A    between atoms: _552  and  _553
REMARK  228  A    between atoms: _552  and  _555
REMARK  229  A    between atoms: _555  and  _556
REMARK                            x       y       z     vdW  Elec       q    Type
REMARK                         _______ _______ _______ _____ _____    ______ ____
ROOT
ATOM      1  CA  LYS A   1      45.938  -9.652  27.711  0.00  0.00    +0.145 C 
ENDROOT
BRANCH   1   2
ATOM      2  C   LYS A   1      46.024 -11.009  27.011  0.00  0.00    +0.238 C 
ATOM      3  O   LYS A   1      46.490 -11.979  27.620  0.00  0.00    -0.274 OA
ATOM      4  N   LEU A   2      45.614 -11.071  25.728  0.00  0.00    -0.298 N 
ATOM      5  H   LEU A   2      45.294 -10.191  25.275  0.00  0.00    +0.150 HD
BRANCH   4   6
ATOM      6  CA  LEU A   2      45.592 -12.306  24.931  0.00  0.00    +0.137 C 
BRANCH   6   7
ATOM      7  C   LEU A   2      46.912 -13.119  24.933  0.00  0.00    +0.227 C 
ATOM      8  O   LEU A   2      46.857 -14.353  24.915  0.00  0.00    -0.286 OA
ENDBRANCH   6   7
BRANCH   6   9
ATOM      9  CB  LEU A   2      45.139 -12.012  23.490  0.00  0.00    +0.028 C 
BRANCH   9  10
ATOM     10  CG  LEU A   2      44.290 -13.082  22.804  0.00  0.00    +0.002 C 
ATOM     11  CD2 LEU A   2      43.011 -13.351  23.550  0.00  0.00    +0.000 C 
ATOM     12  CD1 LEU A   2      43.950 -12.664  21.386  0.00  0.00    +0.000 C 
ENDBRANCH   9  10
ENDBRANCH   6   9
ENDBRANCH   4   6
ENDBRANCH   1   2
BRANCH   1  13
ATOM     13  N   LYS A   1      45.996  -9.880  29.166  0.00  0.00    -0.238 NA
ATOM     14  H   LYS A   1      46.283 -10.832  29.472  0.00  0.00    +0.142 HD
ENDBRANCH   1  13
BRANCH   1  15
ATOM     15  CB  LYS A   1      47.045  -8.681  27.223  0.00  0.00    +0.026 C 
BRANCH  15  16
ATOM     16  CG  LYS A   1      48.463  -9.050  27.669  0.00  0.00    -0.000 C 
BRANCH  16  17
ATOM     17  CD  LYS A   1      49.426  -7.891  27.505  0.00  0.00    -0.024 C 
BRANCH  17  18
ATOM     18  CE  LYS A   1      50.833  -8.343  27.190  0.00  0.00    -0.086 C 
BRANCH  18  19
ATOM     19  NZ  LYS A   1      51.516  -8.936  28.369  0.00  0.00    +0.380 N 
ATOM     20  HZ1 LYS A   1      51.568  -8.229  29.130  0.00  0.00    -0.089 HD
ATOM     21  HZ2 LYS A   1      50.979  -9.763  28.699  0.00  0.00    -0.089 HD
ATOM     22  HZ3 LYS A   1      52.477  -9.230  28.100  0.00  0.00    -0.089 HD
ENDBRANCH  18  19
ENDBRANCH  17  18
ENDBRANCH  16  17
ENDBRANCH  15  16
ENDBRANCH   1  15
TORSDOF 11
REMARK  Name = ../refined-set-2016/4x6n/4x6n_pocket.pdb
REMARK  229 active torsions:
REMARK  status: ('A' for Active; 'I' for Inactive)
REMARK    1  A    between atoms: _1  and  _5
REMARK    2  A    between atoms: _5  and  _6
REMARK    3  A    between atoms: _5  and  _8
REMARK    4  A    between atoms: _8  and  _9
REMARK    5  A    between atoms: _12  and  _14
REMARK    6  A    between atoms: _14  and  _15
REMARK    7  A    between atoms: _14  and  _17
REMARK    8  A    between atoms: _20  and  _22
REMARK    9  A    between atoms: _22  and  _23
REMARK   10  A    between atoms: _22  and  _25
REMARK   11  A    between atoms: _25  and  _26
REMARK   12  A    between atoms: _29  and  _31
REMARK   13  A    between atoms: _31  and  _32
REMARK   14  A    between atoms: _31  and  _34
REMARK   15  A    between atoms: _34  and  _35
REMARK   16  A    between atoms: _38  and  _40
REMARK   17  A    between atoms: _40  and  _41
REMARK   18  A    between atoms: _40  and  _43
REMARK   19  A    between atoms: _43  and  _44
REMARK   20  A    between atoms: _47  and  _49
REMARK   21  A    between atoms: _49  and  _50
REMARK   22  A    between atoms: _49  and  _52
REMARK   23  A    between atoms: _52  and  _53
REMARK   24  A    between atoms: _53  and  _54
REMARK   25  A    between atoms: _59  and  _61
REMARK   26  A    between atoms: _61  and  _62
REMARK   27  A    between atoms: _61  and  _64
REMARK   28  A    between atoms: _64  and  _65
REMARK   29  A    between atoms: _65  and  _66
REMARK   30  A    between atoms: _66  and  _67
REMARK   31  A    between atoms: _76  and  _78
REMARK   32  A    between atoms: _78  and  _79
REMARK   33  A    between atoms: _78  and  _81
REMARK   34  A    between atoms: _81  and  _82
REMARK   35  A    between atoms: _87  and  _89
REMARK   36  A    between atoms: _89  and  _90
REMARK   37  A    between atoms: _89  and  _92
REMARK   38  A    between atoms: _92  and  _93
REMARK   39  A    between atoms: _96  and  _98
REMARK   40  A    between atoms: _98  and  _99
REMARK   41  A    between atoms: _98  and  _101
REMARK   42  A    between atoms: _101  and  _102
REMARK   43  A    between atoms: _102  and  _137
REMARK   44  A    between atoms: _103  and  _105
REMARK   45  A    between atoms: _105  and  _106
REMARK   46  A    between atoms: _108  and  _110
REMARK   47  A    between atoms: _110  and  _111
REMARK   48  A    between atoms: _114  and  _116
REMARK   49  A    between atoms: _116  and  _117
REMARK   50  A    between atoms: _120  and  _122
REMARK   51  A    between atoms: _122  and  _123
REMARK   52  A    between atoms: _122  and  _125
REMARK   53  A    between atoms: _125  and  _126
REMARK   54  A    between atoms: _131  and  _133
REMARK   55  A    between atoms: _133  and  _134
REMARK   56  A    between atoms: _133  and  _136
REMARK   57  A    between atoms: _136  and  _137
REMARK   58  A    between atoms: _138  and  _140
REMARK   59  A    between atoms: _140  and  _141
REMARK   60  A    between atoms: _140  and  _143
REMARK   61  A    between atoms: _143  and  _144
REMARK   62  A    between atoms: _150  and  _152
REMARK   63  A    between atoms: _152  and  _153
REMARK   64  A    between atoms: _152  and  _155
REMARK   65  A    between atoms: _155  and  _156
REMARK   66  A    between atoms: _161  and  _162
REMARK   67  A    between atoms: _164  and  _166
REMARK   68  A    between atoms: _166  and  _167
REMARK   69  A    between atoms: _169  and  _171
REMARK   70  A    between atoms: _171  and  _172
REMARK   71  A    between atoms: _171  and  _174
REMARK   72  A    between atoms: _177  and  _179
REMARK   73  A    between atoms: _179  and  _180
REMARK   74  A    between atoms: _183  and  _185
REMARK   75  A    between atoms: _185  and  _186
REMARK   76  A    between atoms: _185  and  _188
REMARK   77  A    between atoms: _188  and  _189
REMARK   78  A    between atoms: _192  and  _194
REMARK   79  A    between atoms: _194  and  _195
REMARK   80  A    between atoms: _194  and  _197
REMARK   81  A    between atoms: _200  and  _202
REMARK   82  A    between atoms: _202  and  _203
REMARK   83  A    between atoms: _202  and  _205
REMARK   84  A    between atoms: _205  and  _206
REMARK   85  A    between atoms: _216  and  _218
REMARK   86  A    between atoms: _218  and  _219
REMARK   87  A    between atoms: _221  and  _223
REMARK   88  A    between atoms: _223  and  _224
REMARK   89  A    between atoms: _223  and  _226
REMARK   90  A    between atoms: _226  and  _227
REMARK   91  A    between atoms: _232  and  _233
REMARK   92  A    between atoms: _235  and  _237
REMARK   93  A    between atoms: _237  and  _238
REMARK   94  A    between atoms: _237  and  _240
REMARK   95  A    between atoms: _240  and  _241
REMARK   96  A    between atoms: _241  and  _242
REMARK   97  A    between atoms: _242  and  _243
REMARK   98  A    between atoms: _243  and  _244
REMARK   99  A    between atoms: _248  and  _250
REMARK  100  A    between atoms: _250  and  _251
REMARK  101  A    between atoms: _250  and  _253
REMARK  102  A    between atoms: _253  and  _254
REMARK  103  A    between atoms: _257  and  _259
REMARK  104  A    between atoms: _259  and  _260
REMARK  105  A    between atoms: _259  and  _262
REMARK  106  A    between atoms: _262  and  _263
REMARK  107  A    between atoms: _266  and  _268
REMARK  108  A    between atoms: _268  and  _269
REMARK  109  A    between atoms: _268  and  _271
REMARK  110  A    between atoms: _271  and  _272
REMARK  111  A    between atoms: _272  and  _273
REMARK  112  A    between atoms: _273  and  _274
REMARK  113  A    between atoms: _274  and  _275
REMARK  114  A    between atoms: _279  and  _281
REMARK  115  A    between atoms: _281  and  _282
REMARK  116  A    between atoms: _281  and  _284
REMARK  117  A    between atoms: _284  and  _285
REMARK  118  A    between atoms: _288  and  _290
REMARK  119  A    between atoms: _290  and  _291
REMARK  120  A    between atoms: _290  and  _293
REMARK  121  A    between atoms: _293  and  _294
REMARK  122  A    between atoms: _294  and  _295
REMARK  123  A    between atoms: _300  and  _302
REMARK  124  A    between atoms: _302  and  _303
REMARK  125  A    between atoms: _302  and  _305
REMARK  126  A    between atoms: _305  and  _306
REMARK  127  A    between atoms: _311  and  _312
REMARK  128  A    between atoms: _314  and  _316
REMARK  129  A    between atoms: _316  and  _317
REMARK  130  A    between atoms: _316  and  _319
REMARK  131  A    between atoms: _319  and  _320
REMARK  132  A    between atoms: _323  and  _325
REMARK  133  A    between atoms: _325  and  _326
REMARK  134  A    between atoms: _325  and  _328
REMARK  135  A    between atoms: _330  and  _332
REMARK  136  A    between atoms: _332  and  _333
REMARK  137  A    between atoms: _336  and  _338
REMARK  138  A    between atoms: _338  and  _339
REMARK  139  A    between atoms: _338  and  _341
REMARK  140  A    between atoms: _341  and  _342
REMARK  141  A    between atoms: _345  and  _347
REMARK  142  A    between atoms: _347  and  _348
REMARK  143  A    between atoms: _351  and  _353
REMARK  144  A    between atoms: _353  and  _354
REMARK  145  A    between atoms: _353  and  _356
REMARK  146  A    between atoms: _356  and  _357
REMARK  147  A    between atoms: _357  and  _480
REMARK  148  A    between atoms: _358  and  _360
REMARK  149  A    between atoms: _360  and  _361
REMARK  150  A    between atoms: _360  and  _363
REMARK  151  A    between atoms: _363  and  _364
REMARK  152  A    between atoms: _364  and  _365
REMARK  153  A    between atoms: _365  and  _366
REMARK  154  A    between atoms: _366  and  _367
REMARK  155  A    between atoms: _371  and  _373
REMARK  156  A    between atoms: _373  and  _374
REMARK  157  A    between atoms: _376  and  _378
REMARK  158  A    between atoms: _378  and  _379
REMARK  159  A    between atoms: _378  and  _381
REMARK  160  A    between atoms: _381  and  _382
REMARK  161  A    between atoms: _385  and  _387
REMARK  162  A    between atoms: _387  and  _388
REMARK  163  A    between atoms: _387  and  _390
REMARK  164  A    between atoms: _390  and  _391
REMARK  165  A    between atoms: _393  and  _395
REMARK  166  A    between atoms: _395  and  _396
REMARK  167  A    between atoms: _398  and  _400
REMARK  168  A    between atoms: _400  and  _401
REMARK  169  A    between atoms: _403  and  _405
REMARK  170  A    between atoms: _405  and  _406
REMARK  171  A    between atoms: _405  and  _408
REMARK  172  A    between atoms: _408  and  _409
REMARK  173  A    between atoms: _412  and  _414
REMARK  174  A    between atoms: _414  and  _415
REMARK  175  A    between atoms: _414  and  _417
REMARK  176  A    between atoms: _417  and  _418
REMARK  177  A    between atoms: _421  and  _423
REMARK  178  A    between atoms: _423  and  _424
REMARK  179  A    between atoms: _423  and  _426
REMARK  180  A    between atoms: _426  and  _427
REMARK  181  A    between atoms: _430  and  _432
REMARK  182  A    between atoms: _432  and  _433
REMARK  183  A    between atoms: _432  and  _435
REMARK  184  A    between atoms: _435  and  _436
REMARK  185  A    between atoms: _438  and  _440
REMARK  186  A    between atoms: _440  and  _441
REMARK  187  A    between atoms: _440  and  _443
REMARK  188  A    between atoms: _443  and  _444
REMARK  189  A    between atoms: _454  and  _456
REMARK  190  A    between atoms: _456  and  _457
REMARK  191  A    between atoms: _459  and  _461
REMARK  192  A    between atoms: _461  and  _462
REMARK  193  A    between atoms: _461  and  _464
REMARK  194  A    between atoms: _464  and  _465
REMARK  195  A    between atoms: _465  and  _466
REMARK  196  A    between atoms: _469  and  _471
REMARK  197  A    between atoms: _471  and  _472
REMARK  198  A    between atoms: _474  and  _476
REMARK  199  A    between atoms: _476  and  _477
REMARK  200  A    between atoms: _476  and  _479
REMARK  201  A    between atoms: _479  and  _480
REMARK  202  A    between atoms: _481  and  _483
REMARK  203  A    between atoms: _483  and  _484
REMARK  204  A    between atoms: _487  and  _489
REMARK  205  A    between atoms: _489  and  _490
REMARK  206  A    between atoms: _489  and  _492
REMARK  207  A    between atoms: _492  and  _493
REMARK  208  A    between atoms: _493  and  _494
REMARK  209  A    between atoms: _499  and  _501
REMARK  210  A    between atoms: _501  and  _502
REMARK  211  A    between atoms: _501  and  _504
REMARK  212  A    between atoms: _504  and  _505
REMARK  213  A    between atoms: _505  and  _506
REMARK  214  A    between atoms: _506  and  _507
REMARK  215  A    between atoms: _517  and  _518
REMARK  216  A    between atoms: _523  and  _525
REMARK  217  A    between atoms: _525  and  _526
REMARK  218  A    between atoms: _528  and  _530
REMARK  219  A    between atoms: _530  and  _531
REMARK  220  A    between atoms: _530  and  _533
REMARK  221  A    between atoms: _536  and  _538
REMARK  222  A    between atoms: _538  and  _539
REMARK  223  A    between atoms: _538  and  _541
REMARK  224  A    between atoms: _541  and  _542
REMARK  225  A    between atoms: _547  and  _548
REMARK  226  A    between atoms: _550  and  _552
REMARK  227  A    between atoms: _552  and  _553
REMARK  228  A    between atoms: _552  and  _555
REMARK  229  A    between atoms: _555  and  _556
REMARK                            x       y       z     vdW  Elec       q    Type
REMARK                         _______ _______ _______ _____ _____    ______ ____
ROOT
ATOM      1  C   LYS A   2      49.697 -15.754  32.757  0.00  0.00    +0.241 C 
ATOM      2  N   ILE A   3      49.489 -16.887  33.459  0.00  0.00    -0.297 N 
ATOM      3  H   ILE A   3      49.951 -17.761  33.135  0.00  0.00    +0.150 HD
ATOM      4  O   LYS A   2      49.141 -14.673  33.022  0.00  0.00    -0.273 OA
ENDROOT
BRANCH   2   5
ATOM      5  CA  ILE A   3      48.643 -16.948  34.657  0.00  0.00    +0.149 C 
BRANCH   5   6
ATOM      6  C   ILE A   3      49.254 -15.975  35.678  0.00  0.00    +0.241 C 
ATOM      7  N   GLN A   4      48.421 -15.141  36.280  0.00  0.00    -0.298 N 
ATOM      8  H   GLN A   4      47.409 -15.191  36.044  0.00  0.00    +0.150 HD
ATOM      9  O   ILE A   3      50.474 -15.941  35.843  0.00  0.00    -0.273 OA
BRANCH   7  10
ATOM     10  CA  GLN A   4      48.861 -14.157  37.258  0.00  0.00    +0.137 C 
BRANCH  10  11
ATOM     11  C   GLN A   4      49.004 -14.796  38.648  0.00  0.00    +0.227 C 
ATOM     12  O   GLN A   4      48.264 -15.723  38.990  0.00  0.00    -0.286 OA
ENDBRANCH  10  11
BRANCH  10  13
ATOM     13  CB  GLN A   4      47.889 -12.964  37.296  0.00  0.00    +0.037 C 
BRANCH  13  14
ATOM     14  CG  GLN A   4      47.780 -12.203  35.961  0.00  0.00    +0.087 C 
BRANCH  14  15
ATOM     15  CD  GLN A   4      49.131 -11.688  35.513  0.00  0.00    +0.219 C 
ATOM     16  OE1 GLN A   4      49.703 -10.802  36.135  0.00  0.00    -0.275 OA
ATOM     17  NE2 GLN A   4      49.708 -12.284  34.480  0.00  0.00    -0.329 N 
ATOM     18 HE21 GLN A   4      50.664 -12.001  34.184  0.00  0.00    +0.145 HD
ATOM     19 HE22 GLN A   4      49.205 -13.034  33.965  0.00  0.00    +0.145 HD
ENDBRANCH  14  15
ENDBRANCH  13  14
ENDBRANCH  10  13
ENDBRANCH   7  10
ENDBRANCH   5   6
BRANCH   5  20
ATOM     20  CB  ILE A   3      48.535 -18.414  35.200  0.00  0.00    +0.027 C 
ATOM     21  CG2 ILE A   3      47.896 -18.497  36.624  0.00  0.00    +0.002 C 
BRANCH  20  22
ATOM     22  CG1 ILE A   3      47.797 -19.339  34.188  0.00  0.00    +0.002 C 
ATOM     23  CD1 ILE A   3      46.384 -18.885  33.687  0.00  0.00    +0.000 C 
ENDBRANCH  20  22
ENDBRANCH   5  20
ENDBRANCH   2   5
BRANCH   1  24
ATOM     24  CA  LYS A   2      50.664 -15.851  31.565  0.00  0.00    +0.149 C 
BRANCH  24  26
ATOM     25  C   ASP A   1      50.581 -14.678  29.392  0.00  0.00    +0.239 C 
ATOM     26  N   LYS A   2      50.474 -14.678  30.723  0.00  0.00    -0.297 N 
ATOM     27  H   LYS A   2      50.239 -13.779  31.190  0.00  0.00    +0.150 HD
ATOM     28  O   ASP A   1      50.878 -15.682  28.748  0.00  0.00    -0.274 OA
BRANCH  25  29
ATOM     29  CA  ASP A   1      50.356 -13.344  28.678  0.00  0.00    +0.156 C 
BRANCH  29  30
ATOM     30  N   ASP A   1      49.866 -13.610  27.331  0.00  0.00    -0.238 NA
ATOM     31  H   ASP A   1      49.365 -14.503  27.150  0.00  0.00    +0.142 HD
ENDBRANCH  29  30
BRANCH  29  32
ATOM     32  CB  ASP A   1      49.329 -12.453  29.418  0.00  0.00    +0.140 C 
BRANCH  32  33
ATOM     33  CG  ASP A   1      49.816 -11.671  30.630  0.00  0.00    +0.367 C 
ATOM     34  OD2 ASP A   1      48.965 -11.234  31.432  0.00  0.00    -0.246 OA
ATOM     35  OD1 ASP A   1      51.042 -11.455  30.750  0.00  0.00    -0.246 OA
ENDBRANCH  32  33
ENDBRANCH  29  32
ENDBRANCH  25  29
ENDBRANCH  24  26
BRANCH  24  36
ATOM     36  CB  LYS A   2      52.135 -15.947  32.036  0.00  0.00    +0.029 C 
BRANCH  36  37
ATOM     37  CG  LYS A   2      52.670 -14.688  32.715  0.00  0.00    +0.000 C 
BRANCH  37  38
ATOM     38  CD  LYS A   2      53.980 -14.936  33.432  0.00  0.00    -0.024 C 
BRANCH  38  39
ATOM     39  CE  LYS A   2      54.464 -13.695  34.157  0.00  0.00    -0.086 C 
BRANCH  39  40
ATOM     40  NZ  LYS A   2      55.233 -12.787  33.263  0.00  0.00    +0.380 N 
ATOM     41  HZ1 LYS A   2      55.543 -11.953  33.802  0.00  0.00    -0.089 HD
ATOM     42  HZ2 LYS A   2      56.064 -13.290  32.892  0.00  0.00    -0.089 HD
ATOM     43  HZ3 LYS A   2      54.627 -12.485  32.473  0.00  0.00    -0.089 HD
ENDBRANCH  39  40
ENDBRANCH  38  39
ENDBRANCH  37  38
ENDBRANCH  36  37
ENDBRANCH  24  36
ENDBRANCH   1  24
TORSDOF 20
REMARK  Name = ../refined-set-2016/4x6n/4x6n_pocket.pdb
REMARK  229 active torsions:
REMARK  status: ('A' for Active; 'I' for Inactive)
REMARK    1  A    between atoms: _1  and  _5
REMARK    2  A    between atoms: _5  and  _6
REMARK    3  A    between atoms: _5  and  _8
REMARK    4  A    between atoms: _8  and  _9
REMARK    5  A    between atoms: _12  and  _14
REMARK    6  A    between atoms: _14  and  _15
REMARK    7  A    between atoms: _14  and  _17
REMARK    8  A    between atoms: _20  and  _22
REMARK    9  A    between atoms: _22  and  _23
REMARK   10  A    between atoms: _22  and  _25
REMARK   11  A    between atoms: _25  and  _26
REMARK   12  A    between atoms: _29  and  _31
REMARK   13  A    between atoms: _31  and  _32
REMARK   14  A    between atoms: _31  and  _34
REMARK   15  A    between atoms: _34  and  _35
REMARK   16  A    between atoms: _38  and  _40
REMARK   17  A    between atoms: _40  and  _41
REMARK   18  A    between atoms: _40  and  _43
REMARK   19  A    between atoms: _43  and  _44
REMARK   20  A    between atoms: _47  and  _49
REMARK   21  A    between atoms: _49  and  _50
REMARK   22  A    between atoms: _49  and  _52
REMARK   23  A    between atoms: _52  and  _53
REMARK   24  A    between atoms: _53  and  _54
REMARK   25  A    between atoms: _59  and  _61
REMARK   26  A    between atoms: _61  and  _62
REMARK   27  A    between atoms: _61  and  _64
REMARK   28  A    between atoms: _64  and  _65
REMARK   29  A    between atoms: _65  and  _66
REMARK   30  A    between atoms: _66  and  _67
REMARK   31  A    between atoms: _76  and  _78
REMARK   32  A    between atoms: _78  and  _79
REMARK   33  A    between atoms: _78  and  _81
REMARK   34  A    between atoms: _81  and  _82
REMARK   35  A    between atoms: _87  and  _89
REMARK   36  A    between atoms: _89  and  _90
REMARK   37  A    between atoms: _89  and  _92
REMARK   38  A    between atoms: _92  and  _93
REMARK   39  A    between atoms: _96  and  _98
REMARK   40  A    between atoms: _98  and  _99
REMARK   41  A    between atoms: _98  and  _101
REMARK   42  A    between atoms: _101  and  _102
REMARK   43  A    between atoms: _102  and  _137
REMARK   44  A    between atoms: _103  and  _105
REMARK   45  A    between atoms: _105  and  _106
REMARK   46  A    between atoms: _108  and  _110
REMARK   47  A    between atoms: _110  and  _111
REMARK   48  A    between atoms: _114  and  _116
REMARK   49  A    between atoms: _116  and  _117
REMARK   50  A    between atoms: _120  and  _122
REMARK   51  A    between atoms: _122  and  _123
REMARK   52  A    between atoms: _122  and  _125
REMARK   53  A    between atoms: _125  and  _126
REMARK   54  A    between atoms: _131  and  _133
REMARK   55  A    between atoms: _133  and  _134
REMARK   56  A    between atoms: _133  and  _136
REMARK   57  A    between atoms: _136  and  _137
REMARK   58  A    between atoms: _138  and  _140
REMARK   59  A    between atoms: _140  and  _141
REMARK   60  A    between atoms: _140  and  _143
REMARK   61  A    between atoms: _143  and  _144
REMARK   62  A    between atoms: _150  and  _152
REMARK   63  A    between atoms: _152  and  _153
REMARK   64  A    between atoms: _152  and  _155
REMARK   65  A    between atoms: _155  and  _156
REMARK   66  A    between atoms: _161  and  _162
REMARK   67  A    between atoms: _164  and  _166
REMARK   68  A    between atoms: _166  and  _167
REMARK   69  A    between atoms: _169  and  _171
REMARK   70  A    between atoms: _171  and  _172
REMARK   71  A    between atoms: _171  and  _174
REMARK   72  A    between atoms: _177  and  _179
REMARK   73  A    between atoms: _179  and  _180
REMARK   74  A    between atoms: _183  and  _185
REMARK   75  A    between atoms: _185  and  _186
REMARK   76  A    between atoms: _185  and  _188
REMARK   77  A    between atoms: _188  and  _189
REMARK   78  A    between atoms: _192  and  _194
REMARK   79  A    between atoms: _194  and  _195
REMARK   80  A    between atoms: _194  and  _197
REMARK   81  A    between atoms: _200  and  _202
REMARK   82  A    between atoms: _202  and  _203
REMARK   83  A    between atoms: _202  and  _205
REMARK   84  A    between atoms: _205  and  _206
REMARK   85  A    between atoms: _216  and  _218
REMARK   86  A    between atoms: _218  and  _219
REMARK   87  A    between atoms: _221  and  _223
REMARK   88  A    between atoms: _223  and  _224
REMARK   89  A    between atoms: _223  and  _226
REMARK   90  A    between atoms: _226  and  _227
REMARK   91  A    between atoms: _232  and  _233
REMARK   92  A    between atoms: _235  and  _237
REMARK   93  A    between atoms: _237  and  _238
REMARK   94  A    between atoms: _237  and  _240
REMARK   95  A    between atoms: _240  and  _241
REMARK   96  A    between atoms: _241  and  _242
REMARK   97  A    between atoms: _242  and  _243
REMARK   98  A    between atoms: _243  and  _244
REMARK   99  A    between atoms: _248  and  _250
REMARK  100  A    between atoms: _250  and  _251
REMARK  101  A    between atoms: _250  and  _253
REMARK  102  A    between atoms: _253  and  _254
REMARK  103  A    between atoms: _257  and  _259
REMARK  104  A    between atoms: _259  and  _260
REMARK  105  A    between atoms: _259  and  _262
REMARK  106  A    between atoms: _262  and  _263
REMARK  107  A    between atoms: _266  and  _268
REMARK  108  A    between atoms: _268  and  _269
REMARK  109  A    between atoms: _268  and  _271
REMARK  110  A    between atoms: _271  and  _272
REMARK  111  A    between atoms: _272  and  _273
REMARK  112  A    between atoms: _273  and  _274
REMARK  113  A    between atoms: _274  and  _275
REMARK  114  A    between atoms: _279  and  _281
REMARK  115  A    between atoms: _281  and  _282
REMARK  116  A    between atoms: _281  and  _284
REMARK  117  A    between atoms: _284  and  _285
REMARK  118  A    between atoms: _288  and  _290
REMARK  119  A    between atoms: _290  and  _291
REMARK  120  A    between atoms: _290  and  _293
REMARK  121  A    between atoms: _293  and  _294
REMARK  122  A    between atoms: _294  and  _295
REMARK  123  A    between atoms: _300  and  _302
REMARK  124  A    between atoms: _302  and  _303
REMARK  125  A    between atoms: _302  and  _305
REMARK  126  A    between atoms: _305  and  _306
REMARK  127  A    between atoms: _311  and  _312
REMARK  128  A    between atoms: _314  and  _316
REMARK  129  A    between atoms: _316  and  _317
REMARK  130  A    between atoms: _316  and  _319
REMARK  131  A    between atoms: _319  and  _320
REMARK  132  A    between atoms: _323  and  _325
REMARK  133  A    between atoms: _325  and  _326
REMARK  134  A    between atoms: _325  and  _328
REMARK  135  A    between atoms: _330  and  _332
REMARK  136  A    between atoms: _332  and  _333
REMARK  137  A    between atoms: _336  and  _338
REMARK  138  A    between atoms: _338  and  _339
REMARK  139  A    between atoms: _338  and  _341
REMARK  140  A    between atoms: _341  and  _342
REMARK  141  A    between atoms: _345  and  _347
REMARK  142  A    between atoms: _347  and  _348
REMARK  143  A    between atoms: _351  and  _353
REMARK  144  A    between atoms: _353  and  _354
REMARK  145  A    between atoms: _353  and  _356
REMARK  146  A    between atoms: _356  and  _357
REMARK  147  A    between atoms: _357  and  _480
REMARK  148  A    between atoms: _358  and  _360
REMARK  149  A    between atoms: _360  and  _361
REMARK  150  A    between atoms: _360  and  _363
REMARK  151  A    between atoms: _363  and  _364
REMARK  152  A    between atoms: _364  and  _365
REMARK  153  A    between atoms: _365  and  _366
REMARK  154  A    between atoms: _366  and  _367
REMARK  155  A    between atoms: _371  and  _373
REMARK  156  A    between atoms: _373  and  _374
REMARK  157  A    between atoms: _376  and  _378
REMARK  158  A    between atoms: _378  and  _379
REMARK  159  A    between atoms: _378  and  _381
REMARK  160  A    between atoms: _381  and  _382
REMARK  161  A    between atoms: _385  and  _387
REMARK  162  A    between atoms: _387  and  _388
REMARK  163  A    between atoms: _387  and  _390
REMARK  164  A    between atoms: _390  and  _391
REMARK  165  A    between atoms: _393  and  _395
REMARK  166  A    between atoms: _395  and  _396
REMARK  167  A    between atoms: _398  and  _400
REMARK  168  A    between atoms: _400  and  _401
REMARK  169  A    between atoms: _403  and  _405
REMARK  170  A    between atoms: _405  and  _406
REMARK  171  A    between atoms: _405  and  _408
REMARK  172  A    between atoms: _408  and  _409
REMARK  173  A    between atoms: _412  and  _414
REMARK  174  A    between atoms: _414  and  _415
REMARK  175  A    between atoms: _414  and  _417
REMARK  176  A    between atoms: _417  and  _418
REMARK  177  A    between atoms: _421  and  _423
REMARK  178  A    between atoms: _423  and  _424
REMARK  179  A    between atoms: _423  and  _426
REMARK  180  A    between atoms: _426  and  _427
REMARK  181  A    between atoms: _430  and  _432
REMARK  182  A    between atoms: _432  and  _433
REMARK  183  A    between atoms: _432  and  _435
REMARK  184  A    between atoms: _435  and  _436
REMARK  185  A    between atoms: _438  and  _440
REMARK  186  A    between atoms: _440  and  _441
REMARK  187  A    between atoms: _440  and  _443
REMARK  188  A    between atoms: _443  and  _444
REMARK  189  A    between atoms: _454  and  _456
REMARK  190  A    between atoms: _456  and  _457
REMARK  191  A    between atoms: _459  and  _461
REMARK  192  A    between atoms: _461  and  _462
REMARK  193  A    between atoms: _461  and  _464
REMARK  194  A    between atoms: _464  and  _465
REMARK  195  A    between atoms: _465  and  _466
REMARK  196  A    between atoms: _469  and  _471
REMARK  197  A    between atoms: _471  and  _472
REMARK  198  A    between atoms: _474  and  _476
REMARK  199  A    between atoms: _476  and  _477
REMARK  200  A    between atoms: _476  and  _479
REMARK  201  A    between atoms: _479  and  _480
REMARK  202  A    between atoms: _481  and  _483
REMARK  203  A    between atoms: _483  and  _484
REMARK  204  A    between atoms: _487  and  _489
REMARK  205  A    between atoms: _489  and  _490
REMARK  206  A    between atoms: _489  and  _492
REMARK  207  A    between atoms: _492  and  _493
REMARK  208  A    between atoms: _493  and  _494
REMARK  209  A    between atoms: _499  and  _501
REMARK  210  A    between atoms: _501  and  _502
REMARK  211  A    between atoms: _501  and  _504
REMARK  212  A    between atoms: _504  and  _505
REMARK  213  A    between atoms: _505  and  _506
REMARK  214  A    between atoms: _506  and  _507
REMARK  215  A    between atoms: _517  and  _518
REMARK  216  A    between atoms: _523  and  _525
REMARK  217  A    between atoms: _525  and  _526
REMARK  218  A    between atoms: _528  and  _530
REMARK  219  A    between atoms: _530  and  _531
REMARK  220  A    between atoms: _530  and  _533
REMARK  221  A    between atoms: _536  and  _538
REMARK  222  A    between atoms: _538  and  _539
REMARK  223  A    between atoms: _538  and  _541
REMARK  224  A    between atoms: _541  and  _542
REMARK  225  A    between atoms: _547  and  _548
REMARK  226  A    between atoms: _550  and  _552
REMARK  227  A    between atoms: _552  and  _553
REMARK  228  A    between atoms: _552  and  _555
REMARK  229  A    between atoms: _555  and  _556
REMARK                            x       y       z     vdW  Elec       q    Type
REMARK                         _______ _______ _______ _____ _____    ______ ____
ROOT
ATOM      1  CG  TYR A   1      29.120 -12.261  20.517  0.00  0.00    -0.020 A 
ATOM      2  CD2 TYR A   1      28.957 -11.613  21.742  0.00  0.00    -0.001 A 
ATOM      3  CE2 TYR A   1      30.036 -11.409  22.602  0.00  0.00    +0.036 A 
ATOM      4  CZ  TYR A   1      31.305 -11.804  22.212  0.00  0.00    +0.134 A 
ATOM      5  CE1 TYR A   1      31.496 -12.413  20.982  0.00  0.00    +0.036 A 
ATOM      6  CD1 TYR A   1      30.407 -12.635  20.144  0.00  0.00    -0.001 A 
ENDROOT
BRANCH   4   7
ATOM      7  OH  TYR A   1      32.394 -11.576  23.011  0.00  0.00    -0.506 OA
ATOM      8  HH  TYR A   1      32.267 -12.035  23.879  0.00  0.00    +0.292 HD
ENDBRANCH   4   7
BRANCH   1   9
ATOM      9  CB  TYR A   1      27.940 -12.508  19.600  0.00  0.00    +0.051 C 
BRANCH   9  10
ATOM     10  CA  TYR A   1      27.921 -11.523  18.400  0.00  0.00    +0.137 C 
BRANCH  10  11
ATOM     11  N   TYR A   1      27.455 -10.209  18.821  0.00  0.00    -0.239 NA
ATOM     12  H   TYR A   1      26.451 -10.089  19.062  0.00  0.00    +0.142 HD
ENDBRANCH  10  11
BRANCH  10  13
ATOM     13  C   TYR A   1      27.139 -12.048  17.205  0.00  0.00    +0.224 C 
ATOM     14  O   TYR A   1      26.419 -13.047  17.303  0.00  0.00    -0.287 OA
ENDBRANCH  10  13
ENDBRANCH   9  10
ENDBRANCH   1   9
TORSDOF 5
REMARK  Name = ../refined-set-2016/4x6n/4x6n_pocket.pdb
REMARK  229 active torsions:
REMARK  status: ('A' for Active; 'I' for Inactive)
REMARK    1  A    between atoms: _1  and  _5
REMARK    2  A    between atoms: _5  and  _6
REMARK    3  A    between atoms: _5  and  _8
REMARK    4  A    between atoms: _8  and  _9
REMARK    5  A    between atoms: _12  and  _14
REMARK    6  A    between atoms: _14  and  _15
REMARK    7  A    between atoms: _14  and  _17
REMARK    8  A    between atoms: _20  and  _22
REMARK    9  A    between atoms: _22  and  _23
REMARK   10  A    between atoms: _22  and  _25
REMARK   11  A    between atoms: _25  and  _26
REMARK   12  A    between atoms: _29  and  _31
REMARK   13  A    between atoms: _31  and  _32
REMARK   14  A    between atoms: _31  and  _34
REMARK   15  A    between atoms: _34  and  _35
REMARK   16  A    between atoms: _38  and  _40
REMARK   17  A    between atoms: _40  and  _41
REMARK   18  A    between atoms: _40  and  _43
REMARK   19  A    between atoms: _43  and  _44
REMARK   20  A    between atoms: _47  and  _49
REMARK   21  A    between atoms: _49  and  _50
REMARK   22  A    between atoms: _49  and  _52
REMARK   23  A    between atoms: _52  and  _53
REMARK   24  A    between atoms: _53  and  _54
REMARK   25  A    between atoms: _59  and  _61
REMARK   26  A    between atoms: _61  and  _62
REMARK   27  A    between atoms: _61  and  _64
REMARK   28  A    between atoms: _64  and  _65
REMARK   29  A    between atoms: _65  and  _66
REMARK   30  A    between atoms: _66  and  _67
REMARK   31  A    between atoms: _76  and  _78
REMARK   32  A    between atoms: _78  and  _79
REMARK   33  A    between atoms: _78  and  _81
REMARK   34  A    between atoms: _81  and  _82
REMARK   35  A    between atoms: _87  and  _89
REMARK   36  A    between atoms: _89  and  _90
REMARK   37  A    between atoms: _89  and  _92
REMARK   38  A    between atoms: _92  and  _93
REMARK   39  A    between atoms: _96  and  _98
REMARK   40  A    between atoms: _98  and  _99
REMARK   41  A    between atoms: _98  and  _101
REMARK   42  A    between atoms: _101  and  _102
REMARK   43  A    between atoms: _102  and  _137
REMARK   44  A    between atoms: _103  and  _105
REMARK   45  A    between atoms: _105  and  _106
REMARK   46  A    between atoms: _108  and  _110
REMARK   47  A    between atoms: _110  and  _111
REMARK   48  A    between atoms: _114  and  _116
REMARK   49  A    between atoms: _116  and  _117
REMARK   50  A    between atoms: _120  and  _122
REMARK   51  A    between atoms: _122  and  _123
REMARK   52  A    between atoms: _122  and  _125
REMARK   53  A    between atoms: _125  and  _126
REMARK   54  A    between atoms: _131  and  _133
REMARK   55  A    between atoms: _133  and  _134
REMARK   56  A    between atoms: _133  and  _136
REMARK   57  A    between atoms: _136  and  _137
REMARK   58  A    between atoms: _138  and  _140
REMARK   59  A    between atoms: _140  and  _141
REMARK   60  A    between atoms: _140  and  _143
REMARK   61  A    between atoms: _143  and  _144
REMARK   62  A    between atoms: _150  and  _152
REMARK   63  A    between atoms: _152  and  _153
REMARK   64  A    between atoms: _152  and  _155
REMARK   65  A    between atoms: _155  and  _156
REMARK   66  A    between atoms: _161  and  _162
REMARK   67  A    between atoms: _164  and  _166
REMARK   68  A    between atoms: _166  and  _167
REMARK   69  A    between atoms: _169  and  _171
REMARK   70  A    between atoms: _171  and  _172
REMARK   71  A    between atoms: _171  and  _174
REMARK   72  A    between atoms: _177  and  _179
REMARK   73  A    between atoms: _179  and  _180
REMARK   74  A    between atoms: _183  and  _185
REMARK   75  A    between atoms: _185  and  _186
REMARK   76  A    between atoms: _185  and  _188
REMARK   77  A    between atoms: _188  and  _189
REMARK   78  A    between atoms: _192  and  _194
REMARK   79  A    between atoms: _194  and  _195
REMARK   80  A    between atoms: _194  and  _197
REMARK   81  A    between atoms: _200  and  _202
REMARK   82  A    between atoms: _202  and  _203
REMARK   83  A    between atoms: _202  and  _205
REMARK   84  A    between atoms: _205  and  _206
REMARK   85  A    between atoms: _216  and  _218
REMARK   86  A    between atoms: _218  and  _219
REMARK   87  A    between atoms: _221  and  _223
REMARK   88  A    between atoms: _223  and  _224
REMARK   89  A    between atoms: _223  and  _226
REMARK   90  A    between atoms: _226  and  _227
REMARK   91  A    between atoms: _232  and  _233
REMARK   92  A    between atoms: _235  and  _237
REMARK   93  A    between atoms: _237  and  _238
REMARK   94  A    between atoms: _237  and  _240
REMARK   95  A    between atoms: _240  and  _241
REMARK   96  A    between atoms: _241  and  _242
REMARK   97  A    between atoms: _242  and  _243
REMARK   98  A    between atoms: _243  and  _244
REMARK   99  A    between atoms: _248  and  _250
REMARK  100  A    between atoms: _250  and  _251
REMARK  101  A    between atoms: _250  and  _253
REMARK  102  A    between atoms: _253  and  _254
REMARK  103  A    between atoms: _257  and  _259
REMARK  104  A    between atoms: _259  and  _260
REMARK  105  A    between atoms: _259  and  _262
REMARK  106  A    between atoms: _262  and  _263
REMARK  107  A    between atoms: _266  and  _268
REMARK  108  A    between atoms: _268  and  _269
REMARK  109  A    between atoms: _268  and  _271
REMARK  110  A    between atoms: _271  and  _272
REMARK  111  A    between atoms: _272  and  _273
REMARK  112  A    between atoms: _273  and  _274
REMARK  113  A    between atoms: _274  and  _275
REMARK  114  A    between atoms: _279  and  _281
REMARK  115  A    between atoms: _281  and  _282
REMARK  116  A    between atoms: _281  and  _284
REMARK  117  A    between atoms: _284  and  _285
REMARK  118  A    between atoms: _288  and  _290
REMARK  119  A    between atoms: _290  and  _291
REMARK  120  A    between atoms: _290  and  _293
REMARK  121  A    between atoms: _293  and  _294
REMARK  122  A    between atoms: _294  and  _295
REMARK  123  A    between atoms: _300  and  _302
REMARK  124  A    between atoms: _302  and  _303
REMARK  125  A    between atoms: _302  and  _305
REMARK  126  A    between atoms: _305  and  _306
REMARK  127  A    between atoms: _311  and  _312
REMARK  128  A    between atoms: _314  and  _316
REMARK  129  A    between atoms: _316  and  _317
REMARK  130  A    between atoms: _316  and  _319
REMARK  131  A    between atoms: _319  and  _320
REMARK  132  A    between atoms: _323  and  _325
REMARK  133  A    between atoms: _325  and  _326
REMARK  134  A    between atoms: _325  and  _328
REMARK  135  A    between atoms: _330  and  _332
REMARK  136  A    between atoms: _332  and  _333
REMARK  137  A    between atoms: _336  and  _338
REMARK  138  A    between atoms: _338  and  _339
REMARK  139  A    between atoms: _338  and  _341
REMARK  140  A    between atoms: _341  and  _342
REMARK  141  A    between atoms: _345  and  _347
REMARK  142  A    between atoms: _347  and  _348
REMARK  143  A    between atoms: _351  and  _353
REMARK  144  A    between atoms: _353  and  _354
REMARK  145  A    between atoms: _353  and  _356
REMARK  146  A    between atoms: _356  and  _357
REMARK  147  A    between atoms: _357  and  _480
REMARK  148  A    between atoms: _358  and  _360
REMARK  149  A    between atoms: _360  and  _361
REMARK  150  A    between atoms: _360  and  _363
REMARK  151  A    between atoms: _363  and  _364
REMARK  152  A    between atoms: _364  and  _365
REMARK  153  A    between atoms: _365  and  _366
REMARK  154  A    between atoms: _366  and  _367
REMARK  155  A    between atoms: _371  and  _373
REMARK  156  A    between atoms: _373  and  _374
REMARK  157  A    between atoms: _376  and  _378
REMARK  158  A    between atoms: _378  and  _379
REMARK  159  A    between atoms: _378  and  _381
REMARK  160  A    between atoms: _381  and  _382
REMARK  161  A    between atoms: _385  and  _387
REMARK  162  A    between atoms: _387  and  _388
REMARK  163  A    between atoms: _387  and  _390
REMARK  164  A    between atoms: _390  and  _391
REMARK  165  A    between atoms: _393  and  _395
REMARK  166  A    between atoms: _395  and  _396
REMARK  167  A    between atoms: _398  and  _400
REMARK  168  A    between atoms: _400  and  _401
REMARK  169  A    between atoms: _403  and  _405
REMARK  170  A    between atoms: _405  and  _406
REMARK  171  A    between atoms: _405  and  _408
REMARK  172  A    between atoms: _408  and  _409
REMARK  173  A    between atoms: _412  and  _414
REMARK  174  A    between atoms: _414  and  _415
REMARK  175  A    between atoms: _414  and  _417
REMARK  176  A    between atoms: _417  and  _418
REMARK  177  A    between atoms: _421  and  _423
REMARK  178  A    between atoms: _423  and  _424
REMARK  179  A    between atoms: _423  and  _426
REMARK  180  A    between atoms: _426  and  _427
REMARK  181  A    between atoms: _430  and  _432
REMARK  182  A    between atoms: _432  and  _433
REMARK  183  A    between atoms: _432  and  _435
REMARK  184  A    between atoms: _435  and  _436
REMARK  185  A    between atoms: _438  and  _440
REMARK  186  A    between atoms: _440  and  _441
REMARK  187  A    between atoms: _440  and  _443
REMARK  188  A    between atoms: _443  and  _444
REMARK  189  A    between atoms: _454  and  _456
REMARK  190  A    between atoms: _456  and  _457
REMARK  191  A    between atoms: _459  and  _461
REMARK  192  A    between atoms: _461  and  _462
REMARK  193  A    between atoms: _461  and  _464
REMARK  194  A    between atoms: _464  and  _465
REMARK  195  A    between atoms: _465  and  _466
REMARK  196  A    between atoms: _469  and  _471
REMARK  197  A    between atoms: _471  and  _472
REMARK  198  A    between atoms: _474  and  _476
REMARK  199  A    between atoms: _476  and  _477
REMARK  200  A    between atoms: _476  and  _479
REMARK  201  A    between atoms: _479  and  _480
REMARK  202  A    between atoms: _481  and  _483
REMARK  203  A    between atoms: _483  and  _484
REMARK  204  A    between atoms: _487  and  _489
REMARK  205  A    between atoms: _489  and  _490
REMARK  206  A    between atoms: _489  and  _492
REMARK  207  A    between atoms: _492  and  _493
REMARK  208  A    between atoms: _493  and  _494
REMARK  209  A    between atoms: _499  and  _501
REMARK  210  A    between atoms: _501  and  _502
REMARK  211  A    between atoms: _501  and  _504
REMARK  212  A    between atoms: _504  and  _505
REMARK  213  A    between atoms: _505  and  _506
REMARK  214  A    between atoms: _506  and  _507
REMARK  215  A    between atoms: _517  and  _518
REMARK  216  A    between atoms: _523  and  _525
REMARK  217  A    between atoms: _525  and  _526
REMARK  218  A    between atoms: _528  and  _530
REMARK  219  A    between atoms: _530  and  _531
REMARK  220  A    between atoms: _530  and  _533
REMARK  221  A    between atoms: _536  and  _538
REMARK  222  A    between atoms: _538  and  _539
REMARK  223  A    between atoms: _538  and  _541
REMARK  224  A    between atoms: _541  and  _542
REMARK  225  A    between atoms: _547  and  _548
REMARK  226  A    between atoms: _550  and  _552
REMARK  227  A    between atoms: _552  and  _553
REMARK  228  A    between atoms: _552  and  _555
REMARK  229  A    between atoms: _555  and  _556
REMARK                            x       y       z     vdW  Elec       q    Type
REMARK                         _______ _______ _______ _____ _____    ______ ____
ROOT
ATOM      1  C   ILE A   1      25.737 -12.948  29.907  0.00  0.00    +0.238 C 
ATOM      2  O   ILE A   1      26.808 -13.537  30.070  0.00  0.00    -0.274 OA
ATOM      3  N   CYS A   2      25.648 -11.725  29.385  0.00  0.00    -0.297 N 
ATOM      4  H   CYS A   2      24.712 -11.283  29.281  0.00  0.00    +0.150 HD
ENDROOT
BRANCH   1   5
ATOM      5  CA  ILE A   1      24.421 -13.637  30.252  0.00  0.00    +0.145 C 
BRANCH   5   6
ATOM      6  N   ILE A   1      24.504 -14.999  29.744  0.00  0.00    -0.238 NA
ATOM      7  H   ILE A   1      25.399 -15.516  29.858  0.00  0.00    +0.142 HD
ENDBRANCH   5   6
BRANCH   5   8
ATOM      8  CB  ILE A   1      24.008 -13.534  31.746  0.00  0.00    +0.025 C 
ATOM      9  CG2 ILE A   1      25.098 -14.101  32.700  0.00  0.00    +0.002 C 
BRANCH   8  10
ATOM     10  CG1 ILE A   1      23.579 -12.075  32.110  0.00  0.00    +0.002 C 
ATOM     11  CD1 ILE A   1      22.935 -11.925  33.570  0.00  0.00    +0.000 C 
ENDBRANCH   8  10
ENDBRANCH   5   8
ENDBRANCH   1   5
BRANCH   3  12
ATOM     12  CA  CYS A   2      26.832 -10.995  28.958  0.00  0.00    +0.160 C 
BRANCH  12  13
ATOM     13  C   CYS A   2      27.155  -9.824  29.827  0.00  0.00    +0.242 C 
ATOM     14  O   CYS A   2      26.264  -9.257  30.459  0.00  0.00    -0.273 OA
ATOM     15  N   ALA A   3      28.436  -9.475  29.861  0.00  0.00    -0.298 N 
ATOM     16  H   ALA A   3      29.107 -10.018  29.280  0.00  0.00    +0.150 HD
BRANCH  15  17
ATOM     17  CA  ALA A   3      28.962  -8.366  30.672  0.00  0.00    +0.137 C 
ATOM     18  CB  ALA A   3      29.324  -8.861  32.091  0.00  0.00    +0.030 C 
BRANCH  17  19
ATOM     19  C   ALA A   3      30.179  -7.732  29.991  0.00  0.00    +0.227 C 
ATOM     20  O   ALA A   3      31.063  -8.433  29.505  0.00  0.00    -0.286 OA
ENDBRANCH  17  19
ENDBRANCH  15  17
ENDBRANCH  12  13
BRANCH  12  21
ATOM     21  CB  CYS A   2      26.709 -10.592  27.497  0.00  0.00    +0.098 C 
ATOM     22  SG  CYS A   2      26.172 -11.942  26.428  0.00  0.00    -0.080 S 
ENDBRANCH  12  21
ENDBRANCH   3  12
TORSDOF 9
REMARK  Name = ../refined-set-2016/4x6n/4x6n_pocket.pdb
REMARK  229 active torsions:
REMARK  status: ('A' for Active; 'I' for Inactive)
REMARK    1  A    between atoms: _1  and  _5
REMARK    2  A    between atoms: _5  and  _6
REMARK    3  A    between atoms: _5  and  _8
REMARK    4  A    between atoms: _8  and  _9
REMARK    5  A    between atoms: _12  and  _14
REMARK    6  A    between atoms: _14  and  _15
REMARK    7  A    between atoms: _14  and  _17
REMARK    8  A    between atoms: _20  and  _22
REMARK    9  A    between atoms: _22  and  _23
REMARK   10  A    between atoms: _22  and  _25
REMARK   11  A    between atoms: _25  and  _26
REMARK   12  A    between atoms: _29  and  _31
REMARK   13  A    between atoms: _31  and  _32
REMARK   14  A    between atoms: _31  and  _34
REMARK   15  A    between atoms: _34  and  _35
REMARK   16  A    between atoms: _38  and  _40
REMARK   17  A    between atoms: _40  and  _41
REMARK   18  A    between atoms: _40  and  _43
REMARK   19  A    between atoms: _43  and  _44
REMARK   20  A    between atoms: _47  and  _49
REMARK   21  A    between atoms: _49  and  _50
REMARK   22  A    between atoms: _49  and  _52
REMARK   23  A    between atoms: _52  and  _53
REMARK   24  A    between atoms: _53  and  _54
REMARK   25  A    between atoms: _59  and  _61
REMARK   26  A    between atoms: _61  and  _62
REMARK   27  A    between atoms: _61  and  _64
REMARK   28  A    between atoms: _64  and  _65
REMARK   29  A    between atoms: _65  and  _66
REMARK   30  A    between atoms: _66  and  _67
REMARK   31  A    between atoms: _76  and  _78
REMARK   32  A    between atoms: _78  and  _79
REMARK   33  A    between atoms: _78  and  _81
REMARK   34  A    between atoms: _81  and  _82
REMARK   35  A    between atoms: _87  and  _89
REMARK   36  A    between atoms: _89  and  _90
REMARK   37  A    between atoms: _89  and  _92
REMARK   38  A    between atoms: _92  and  _93
REMARK   39  A    between atoms: _96  and  _98
REMARK   40  A    between atoms: _98  and  _99
REMARK   41  A    between atoms: _98  and  _101
REMARK   42  A    between atoms: _101  and  _102
REMARK   43  A    between atoms: _102  and  _137
REMARK   44  A    between atoms: _103  and  _105
REMARK   45  A    between atoms: _105  and  _106
REMARK   46  A    between atoms: _108  and  _110
REMARK   47  A    between atoms: _110  and  _111
REMARK   48  A    between atoms: _114  and  _116
REMARK   49  A    between atoms: _116  and  _117
REMARK   50  A    between atoms: _120  and  _122
REMARK   51  A    between atoms: _122  and  _123
REMARK   52  A    between atoms: _122  and  _125
REMARK   53  A    between atoms: _125  and  _126
REMARK   54  A    between atoms: _131  and  _133
REMARK   55  A    between atoms: _133  and  _134
REMARK   56  A    between atoms: _133  and  _136
REMARK   57  A    between atoms: _136  and  _137
REMARK   58  A    between atoms: _138  and  _140
REMARK   59  A    between atoms: _140  and  _141
REMARK   60  A    between atoms: _140  and  _143
REMARK   61  A    between atoms: _143  and  _144
REMARK   62  A    between atoms: _150  and  _152
REMARK   63  A    between atoms: _152  and  _153
REMARK   64  A    between atoms: _152  and  _155
REMARK   65  A    between atoms: _155  and  _156
REMARK   66  A    between atoms: _161  and  _162
REMARK   67  A    between atoms: _164  and  _166
REMARK   68  A    between atoms: _166  and  _167
REMARK   69  A    between atoms: _169  and  _171
REMARK   70  A    between atoms: _171  and  _172
REMARK   71  A    between atoms: _171  and  _174
REMARK   72  A    between atoms: _177  and  _179
REMARK   73  A    between atoms: _179  and  _180
REMARK   74  A    between atoms: _183  and  _185
REMARK   75  A    between atoms: _185  and  _186
REMARK   76  A    between atoms: _185  and  _188
REMARK   77  A    between atoms: _188  and  _189
REMARK   78  A    between atoms: _192  and  _194
REMARK   79  A    between atoms: _194  and  _195
REMARK   80  A    between atoms: _194  and  _197
REMARK   81  A    between atoms: _200  and  _202
REMARK   82  A    between atoms: _202  and  _203
REMARK   83  A    between atoms: _202  and  _205
REMARK   84  A    between atoms: _205  and  _206
REMARK   85  A    between atoms: _216  and  _218
REMARK   86  A    between atoms: _218  and  _219
REMARK   87  A    between atoms: _221  and  _223
REMARK   88  A    between atoms: _223  and  _224
REMARK   89  A    between atoms: _223  and  _226
REMARK   90  A    between atoms: _226  and  _227
REMARK   91  A    between atoms: _232  and  _233
REMARK   92  A    between atoms: _235  and  _237
REMARK   93  A    between atoms: _237  and  _238
REMARK   94  A    between atoms: _237  and  _240
REMARK   95  A    between atoms: _240  and  _241
REMARK   96  A    between atoms: _241  and  _242
REMARK   97  A    between atoms: _242  and  _243
REMARK   98  A    between atoms: _243  and  _244
REMARK   99  A    between atoms: _248  and  _250
REMARK  100  A    between atoms: _250  and  _251
REMARK  101  A    between atoms: _250  and  _253
REMARK  102  A    between atoms: _253  and  _254
REMARK  103  A    between atoms: _257  and  _259
REMARK  104  A    between atoms: _259  and  _260
REMARK  105  A    between atoms: _259  and  _262
REMARK  106  A    between atoms: _262  and  _263
REMARK  107  A    between atoms: _266  and  _268
REMARK  108  A    between atoms: _268  and  _269
REMARK  109  A    between atoms: _268  and  _271
REMARK  110  A    between atoms: _271  and  _272
REMARK  111  A    between atoms: _272  and  _273
REMARK  112  A    between atoms: _273  and  _274
REMARK  113  A    between atoms: _274  and  _275
REMARK  114  A    between atoms: _279  and  _281
REMARK  115  A    between atoms: _281  and  _282
REMARK  116  A    between atoms: _281  and  _284
REMARK  117  A    between atoms: _284  and  _285
REMARK  118  A    between atoms: _288  and  _290
REMARK  119  A    between atoms: _290  and  _291
REMARK  120  A    between atoms: _290  and  _293
REMARK  121  A    between atoms: _293  and  _294
REMARK  122  A    between atoms: _294  and  _295
REMARK  123  A    between atoms: _300  and  _302
REMARK  124  A    between atoms: _302  and  _303
REMARK  125  A    between atoms: _302  and  _305
REMARK  126  A    between atoms: _305  and  _306
REMARK  127  A    between atoms: _311  and  _312
REMARK  128  A    between atoms: _314  and  _316
REMARK  129  A    between atoms: _316  and  _317
REMARK  130  A    between atoms: _316  and  _319
REMARK  131  A    between atoms: _319  and  _320
REMARK  132  A    between atoms: _323  and  _325
REMARK  133  A    between atoms: _325  and  _326
REMARK  134  A    between atoms: _325  and  _328
REMARK  135  A    between atoms: _330  and  _332
REMARK  136  A    between atoms: _332  and  _333
REMARK  137  A    between atoms: _336  and  _338
REMARK  138  A    between atoms: _338  and  _339
REMARK  139  A    between atoms: _338  and  _341
REMARK  140  A    between atoms: _341  and  _342
REMARK  141  A    between atoms: _345  and  _347
REMARK  142  A    between atoms: _347  and  _348
REMARK  143  A    between atoms: _351  and  _353
REMARK  144  A    between atoms: _353  and  _354
REMARK  145  A    between atoms: _353  and  _356
REMARK  146  A    between atoms: _356  and  _357
REMARK  147  A    between atoms: _357  and  _480
REMARK  148  A    between atoms: _358  and  _360
REMARK  149  A    between atoms: _360  and  _361
REMARK  150  A    between atoms: _360  and  _363
REMARK  151  A    between atoms: _363  and  _364
REMARK  152  A    between atoms: _364  and  _365
REMARK  153  A    between atoms: _365  and  _366
REMARK  154  A    between atoms: _366  and  _367
REMARK  155  A    between atoms: _371  and  _373
REMARK  156  A    between atoms: _373  and  _374
REMARK  157  A    between atoms: _376  and  _378
REMARK  158  A    between atoms: _378  and  _379
REMARK  159  A    between atoms: _378  and  _381
REMARK  160  A    between atoms: _381  and  _382
REMARK  161  A    between atoms: _385  and  _387
REMARK  162  A    between atoms: _387  and  _388
REMARK  163  A    between atoms: _387  and  _390
REMARK  164  A    between atoms: _390  and  _391
REMARK  165  A    between atoms: _393  and  _395
REMARK  166  A    between atoms: _395  and  _396
REMARK  167  A    between atoms: _398  and  _400
REMARK  168  A    between atoms: _400  and  _401
REMARK  169  A    between atoms: _403  and  _405
REMARK  170  A    between atoms: _405  and  _406
REMARK  171  A    between atoms: _405  and  _408
REMARK  172  A    between atoms: _408  and  _409
REMARK  173  A    between atoms: _412  and  _414
REMARK  174  A    between atoms: _414  and  _415
REMARK  175  A    between atoms: _414  and  _417
REMARK  176  A    between atoms: _417  and  _418
REMARK  177  A    between atoms: _421  and  _423
REMARK  178  A    between atoms: _423  and  _424
REMARK  179  A    between atoms: _423  and  _426
REMARK  180  A    between atoms: _426  and  _427
REMARK  181  A    between atoms: _430  and  _432
REMARK  182  A    between atoms: _432  and  _433
REMARK  183  A    between atoms: _432  and  _435
REMARK  184  A    between atoms: _435  and  _436
REMARK  185  A    between atoms: _438  and  _440
REMARK  186  A    between atoms: _440  and  _441
REMARK  187  A    between atoms: _440  and  _443
REMARK  188  A    between atoms: _443  and  _444
REMARK  189  A    between atoms: _454  and  _456
REMARK  190  A    between atoms: _456  and  _457
REMARK  191  A    between atoms: _459  and  _461
REMARK  192  A    between atoms: _461  and  _462
REMARK  193  A    between atoms: _461  and  _464
REMARK  194  A    between atoms: _464  and  _465
REMARK  195  A    between atoms: _465  and  _466
REMARK  196  A    between atoms: _469  and  _471
REMARK  197  A    between atoms: _471  and  _472
REMARK  198  A    between atoms: _474  and  _476
REMARK  199  A    between atoms: _476  and  _477
REMARK  200  A    between atoms: _476  and  _479
REMARK  201  A    between atoms: _479  and  _480
REMARK  202  A    between atoms: _481  and  _483
REMARK  203  A    between atoms: _483  and  _484
REMARK  204  A    between atoms: _487  and  _489
REMARK  205  A    between atoms: _489  and  _490
REMARK  206  A    between atoms: _489  and  _492
REMARK  207  A    between atoms: _492  and  _493
REMARK  208  A    between atoms: _493  and  _494
REMARK  209  A    between atoms: _499  and  _501
REMARK  210  A    between atoms: _501  and  _502
REMARK  211  A    between atoms: _501  and  _504
REMARK  212  A    between atoms: _504  and  _505
REMARK  213  A    between atoms: _505  and  _506
REMARK  214  A    between atoms: _506  and  _507
REMARK  215  A    between atoms: _517  and  _518
REMARK  216  A    between atoms: _523  and  _525
REMARK  217  A    between atoms: _525  and  _526
REMARK  218  A    between atoms: _528  and  _530
REMARK  219  A    between atoms: _530  and  _531
REMARK  220  A    between atoms: _530  and  _533
REMARK  221  A    between atoms: _536  and  _538
REMARK  222  A    between atoms: _538  and  _539
REMARK  223  A    between atoms: _538  and  _541
REMARK  224  A    between atoms: _541  and  _542
REMARK  225  A    between atoms: _547  and  _548
REMARK  226  A    between atoms: _550  and  _552
REMARK  227  A    between atoms: _552  and  _553
REMARK  228  A    between atoms: _552  and  _555
REMARK  229  A    between atoms: _555  and  _556
REMARK                            x       y       z     vdW  Elec       q    Type
REMARK                         _______ _______ _______ _____ _____    ______ ____
ROOT
ATOM      1  CA  CYS A   8      39.622 -10.196  25.757  0.00  0.00    +0.160 C 
ENDROOT
BRANCH   1   2
ATOM      2  C   CYS A   8      39.484  -8.687  25.853  0.00  0.00    +0.242 C 
ATOM      3  N   ALA A   9      38.431  -8.190  26.522  0.00  0.00    -0.297 N 
ATOM      4  H   ALA A   9      37.752  -8.874  26.912  0.00  0.00    +0.150 HD
ATOM      5  O   CYS A   8      40.351  -7.994  25.344  0.00  0.00    -0.273 OA
BRANCH   3   6
ATOM      6  CA  ALA A   9      38.153  -6.768  26.752  0.00  0.00    +0.149 C 
ATOM      7  CB  ALA A   9      39.134  -6.181  27.769  0.00  0.00    +0.031 C 
BRANCH   6   8
ATOM      8  C   ALA A   9      38.144  -5.928  25.477  0.00  0.00    +0.241 C 
ATOM      9  O   ALA A   9      38.534  -4.750  25.517  0.00  0.00    -0.273 OA
ATOM     10  N   GLN A  10      37.729  -6.528  24.339  0.00  0.00    -0.298 N 
ATOM     11  H   GLN A  10      37.447  -7.529  24.340  0.00  0.00    +0.150 HD
BRANCH  10  12
ATOM     12  CA  GLN A  10      37.685  -5.739  23.103  0.00  0.00    +0.137 C 
BRANCH  12  13
ATOM     13  C   GLN A  10      36.438  -4.863  23.129  0.00  0.00    +0.227 C 
ATOM     14  O   GLN A  10      35.427  -5.223  23.728  0.00  0.00    -0.286 OA
ENDBRANCH  12  13
BRANCH  12  15
ATOM     15  CB  GLN A  10      37.660  -6.625  21.841  0.00  0.00    +0.037 C 
BRANCH  15  16
ATOM     16  CG  GLN A  10      38.881  -7.529  21.697  0.00  0.00    +0.087 C 
BRANCH  16  17
ATOM     17  CD  GLN A  10      39.068  -7.956  20.274  0.00  0.00    +0.219 C 
ATOM     18  NE2 GLN A  10      38.358  -8.991  19.860  0.00  0.00    -0.329 N 
ATOM     19 HE21 GLN A  10      37.720  -9.481  20.519  0.00  0.00    +0.145 HD
ATOM     20 HE22 GLN A  10      38.437  -9.315  18.875  0.00  0.00    +0.145 HD
ATOM     21  OE1 GLN A  10      39.836  -7.347  19.525  0.00  0.00    -0.275 OA
ENDBRANCH  16  17
ENDBRANCH  15  16
ENDBRANCH  12  15
ENDBRANCH  10  12
ENDBRANCH   6   8
ENDBRANCH   3   6
ENDBRANCH   1   2
BRANCH   1  22
ATOM     22  N   CYS A   8      39.846 -10.584  24.350  0.00  0.00    -0.296 N 
ATOM     23  H   CYS A   8      40.594 -10.109  23.805  0.00  0.00    +0.150 HD
ATOM     24  C   GLY A   7      39.108 -11.535  23.758  0.00  0.00    +0.243 C 
ATOM     25  O   GLY A   7      38.193 -12.123  24.346  0.00  0.00    -0.273 OA
BRANCH  24  26
ATOM     26  CA  GLY A   7      39.372 -11.850  22.292  0.00  0.00    +0.176 C 
BRANCH  26  27
ATOM     27  N   GLY A   7      38.220 -12.578  21.749  0.00  0.00    -0.295 N 
ATOM     28  C   GLU A   6      37.033 -12.025  21.533  0.00  0.00    +0.241 C 
ATOM     29  O   GLU A   6      36.782 -10.822  21.734  0.00  0.00    -0.273 OA
ATOM     30  H   GLY A   7      38.340 -13.585  21.520  0.00  0.00    +0.150 HD
BRANCH  28  31
ATOM     31  CA  GLU A   6      35.919 -12.987  21.081  0.00  0.00    +0.149 C 
BRANCH  31  32
ATOM     32  N   GLU A   6      35.041 -13.116  22.247  0.00  0.00    -0.297 N 
ATOM     33  C   GLY A   5      35.200 -14.141  23.107  0.00  0.00    +0.243 C 
ATOM     34  O   GLY A   5      36.003 -15.062  22.908  0.00  0.00    -0.273 OA
ATOM     35  H   GLU A   6      34.292 -12.413  22.411  0.00  0.00    +0.150 HD
BRANCH  33  36
ATOM     36  CA  GLY A   5      34.350 -14.152  24.359  0.00  0.00    +0.176 C 
BRANCH  36  37
ATOM     37  N   GLY A   5      34.380 -15.496  24.931  0.00  0.00    -0.295 N 
ATOM     38  C   TRP A   4      33.630 -15.892  25.945  0.00  0.00    +0.241 C 
ATOM     39  O   TRP A   4      32.880 -15.136  26.558  0.00  0.00    -0.273 OA
ATOM     40  H   GLY A   5      35.035 -16.187  24.513  0.00  0.00    +0.150 HD
BRANCH  38  41
ATOM     41  CA  TRP A   4      33.787 -17.380  26.369  0.00  0.00    +0.153 C 
BRANCH  41  42
ATOM     42  N   TRP A   4      33.077 -17.695  27.618  0.00  0.00    -0.297 N 
ATOM     43  C   SER A   3      33.456 -18.731  28.371  0.00  0.00    +0.243 C 
ATOM     44  O   SER A   3      34.435 -19.439  28.100  0.00  0.00    -0.273 OA
ATOM     45  H   TRP A   4      32.273 -17.106  27.917  0.00  0.00    +0.150 HD
BRANCH  43  46
ATOM     46  CA  SER A   3      32.638 -19.028  29.611  0.00  0.00    +0.178 C 
BRANCH  46  47
ATOM     47  N   SER A   3      32.740 -18.006  30.642  0.00  0.00    -0.295 N 
ATOM     48  C   THR A   2      33.164 -18.295  31.883  0.00  0.00    +0.243 C 
ATOM     49  O   THR A   2      33.573 -19.402  32.217  0.00  0.00    -0.273 OA
ATOM     50  H   SER A   3      32.478 -17.026  30.412  0.00  0.00    +0.150 HD
BRANCH  48  51
ATOM     51  CA  THR A   2      33.076 -17.176  32.921  0.00  0.00    +0.176 C 
BRANCH  51  52
ATOM     52  N   THR A   2      32.236 -17.641  34.049  0.00  0.00    -0.295 N 
ATOM     53  H   THR A   2      32.625 -17.578  35.011  0.00  0.00    +0.150 HD
ATOM     54  C   ILE A   1      30.994 -18.142  33.895  0.00  0.00    +0.238 C 
ATOM     55  O   ILE A   1      30.442 -18.247  32.801  0.00  0.00    -0.274 OA
BRANCH  54  56
ATOM     56  CA  ILE A   1      30.248 -18.594  35.146  0.00  0.00    +0.145 C 
BRANCH  56  57
ATOM     57  N   ILE A   1      29.041 -17.772  35.180  0.00  0.00    -0.238 NA
ATOM     58  H   ILE A   1      28.390 -17.836  34.372  0.00  0.00    +0.142 HD
ENDBRANCH  56  57
BRANCH  56  59
ATOM     59  CB  ILE A   1      29.989 -20.130  35.095  0.00  0.00    +0.025 C 
ATOM     60  CG2 ILE A   1      31.328 -20.889  35.068  0.00  0.00    +0.002 C 
BRANCH  59  61
ATOM     61  CG1 ILE A   1      29.076 -20.622  36.248  0.00  0.00    +0.002 C 
ATOM     62  CD1 ILE A   1      28.506 -22.042  36.002  0.00  0.00    +0.000 C 
ENDBRANCH  59  61
ENDBRANCH  56  59
ENDBRANCH  54  56
ENDBRANCH  51  52
BRANCH  51  63
ATOM     63  CB  THR A   2      34.425 -16.714  33.444  0.00  0.00    +0.137 C 
ATOM     64  CG2 THR A   2      35.371 -16.233  32.327  0.00  0.00    +0.034 C 
BRANCH  63  65
ATOM     65  OG1 THR A   2      34.200 -15.710  34.435  0.00  0.00    -0.382 OA
ATOM     66  HG1 THR A   2      35.070 -15.396  34.788  0.00  0.00    +0.210 HD
ENDBRANCH  63  65
ENDBRANCH  51  63
ENDBRANCH  48  51
ENDBRANCH  46  47
BRANCH  46  67
ATOM     67  CB  SER A   3      31.159 -19.268  29.271  0.00  0.00    +0.166 C 
BRANCH  67  68
ATOM     68  OG  SER A   3      30.948 -20.315  28.343  0.00  0.00    -0.380 OA
ATOM     69  H   SER A   3      29.978 -20.412  28.172  0.00  0.00    +0.211 HD
ENDBRANCH  67  68
ENDBRANCH  46  67
ENDBRANCH  43  46
ENDBRANCH  41  42
BRANCH  41  70
ATOM     70  CB  TRP A   4      33.332 -18.369  25.254  0.00  0.00    +0.057 C 
BRANCH  70  71
ATOM     71  CG  TRP A   4      31.910 -18.186  24.826  0.00  0.00    -0.002 A 
ATOM     72  CD1 TRP A   4      30.800 -18.685  25.433  0.00  0.00    +0.068 A 
ATOM     73  NE1 TRP A   4      29.672 -18.291  24.751  0.00  0.00    -0.352 N 
ATOM     74  HE1 TRP A   4      28.696 -18.544  25.005  0.00  0.00    +0.166 HD
ATOM     75  CE2 TRP A   4      30.038 -17.512  23.682  0.00  0.00    +0.056 A 
ATOM     76  CZ2 TRP A   4      29.256 -16.916  22.671  0.00  0.00    +0.017 A 
ATOM     77  CH2 TRP A   4      29.922 -16.199  21.691  0.00  0.00    +0.001 A 
ATOM     78  CZ3 TRP A   4      31.316 -16.037  21.720  0.00  0.00    +0.000 A 
ATOM     79  CE3 TRP A   4      32.091 -16.676  22.683  0.00  0.00    +0.001 A 
ATOM     80  CD2 TRP A   4      31.444 -17.410  23.704  0.00  0.00    +0.013 A 
ENDBRANCH  70  71
ENDBRANCH  41  70
ENDBRANCH  38  41
ENDBRANCH  36  37
ENDBRANCH  33  36
ENDBRANCH  31  32
BRANCH  31  81
ATOM     81  CB  GLU A   6      35.155 -12.425  19.857  0.00  0.00    +0.041 C 
BRANCH  81  82
ATOM     82  CG  GLU A   6      36.038 -12.267  18.628  0.00  0.00    +0.116 C 
BRANCH  82  83
ATOM     83  CD  GLU A   6      36.826 -13.512  18.271  0.00  0.00    +0.365 C 
ATOM     84  OE2 GLU A   6      38.074 -13.454  18.237  0.00  0.00    -0.246 OA
ATOM     85  OE1 GLU A   6      36.193 -14.567  18.082  0.00  0.00    -0.246 OA
ENDBRANCH  82  83
ENDBRANCH  81  82
ENDBRANCH  31  81
ENDBRANCH  28  31
ENDBRANCH  26  27
ENDBRANCH  24  26
ENDBRANCH   1  22
BRANCH   1  86
ATOM     86  CB  CYS A   8      40.753 -10.681  26.655  0.00  0.00    +0.098 C 
BRANCH  86  87
ATOM     87  SG  CYS A   8      41.093 -12.454  26.547  0.00  0.00    -0.080 S 
BRANCH  87  88
ATOM     88  SG  SER A   3      42.612 -12.682  27.893  0.00  0.00    -0.080 S 
BRANCH  88  89
ATOM     89  CB  SER A   3      41.803 -12.595  29.522  0.00  0.00    +0.098 C 
BRANCH  89  90
ATOM     90  CA  SER A   3      40.605 -13.536  29.686  0.00  0.00    +0.160 C 
BRANCH  90  92
ATOM     91  C   THR A   2      38.711 -12.252  30.574  0.00  0.00    +0.241 C 
ATOM     92  N   SER A   3      39.715 -13.118  30.770  0.00  0.00    -0.296 N 
ATOM     93  H   SER A   3      39.866 -13.505  31.723  0.00  0.00    +0.150 HD
ATOM     94  O   THR A   2      38.530 -11.672  29.491  0.00  0.00    -0.273 OA
BRANCH  91  95
ATOM     95  CA  THR A   2      37.785 -11.982  31.759  0.00  0.00    +0.149 C 
ATOM     96  CB  THR A   2      36.758 -13.102  31.852  0.00  0.00    +0.031 C 
BRANCH  95  99
ATOM     97  C   ILE A   1      37.693  -9.525  31.628  0.00  0.00    +0.239 C 
ATOM     98  O   ILE A   1      38.839  -9.358  32.053  0.00  0.00    -0.274 OA
ATOM     99  N   THR A   2      37.113 -10.724  31.492  0.00  0.00    -0.297 N 
ATOM    100  H   THR A   2      36.123 -10.756  31.176  0.00  0.00    +0.150 HD
BRANCH  97 101
ATOM    101  CA  ILE A   1      36.932  -8.372  31.035  0.00  0.00    +0.156 C 
BRANCH 101 102
ATOM    102  N   ILE A   1      37.581  -7.088  31.403  0.00  0.00    -0.238 NA
ATOM    103  H   ILE A   1      38.488  -7.103  31.911  0.00  0.00    +0.142 HD
ENDBRANCH 101 102
BRANCH 101 104
ATOM    104  CB  ILE A   1      37.034  -8.548  29.489  0.00  0.00    +0.140 C 
BRANCH 104 105
ATOM    105  CG  ILE A   1      36.170  -9.597  28.781  0.00  0.00    +0.367 C 
ATOM    106  OD2 ILE A   1      35.265 -10.179  29.438  0.00  0.00    -0.246 OA
ATOM    107  OD1 ILE A   1      36.373  -9.807  27.558  0.00  0.00    -0.246 OA
ENDBRANCH 104 105
ENDBRANCH 101 104
ENDBRANCH  97 101
ENDBRANCH  95  99
ENDBRANCH  91  95
ENDBRANCH  90  92
BRANCH  90 108
ATOM    108  C   SER A   3      41.011 -15.013  29.908  0.00  0.00    +0.242 C 
ATOM    109  O   SER A   3      40.335 -15.703  30.684  0.00  0.00    -0.273 OA
ATOM    110  N   TRP A   4      42.042 -15.519  29.203  0.00  0.00    -0.297 N 
ATOM    111  H   TRP A   4      42.539 -14.889  28.542  0.00  0.00    +0.150 HD
BRANCH 110 112
ATOM    112  CA  TRP A   4      42.508 -16.921  29.315  0.00  0.00    +0.149 C 
BRANCH 112 113
ATOM    113  C   TRP A   4      42.902 -17.260  30.756  0.00  0.00    +0.241 C 
ATOM    114  O   TRP A   4      43.683 -16.525  31.354  0.00  0.00    -0.273 OA
ATOM    115  N   GLY A   5      42.383 -18.373  31.292  0.00  0.00    -0.295 N 
ATOM    116  H   GLY A   5      41.750 -18.959  30.711  0.00  0.00    +0.150 HD
BRANCH 115 117
ATOM    117  CA  GLY A   5      42.671 -18.798  32.664  0.00  0.00    +0.176 C 
BRANCH 117 118
ATOM    118  C   GLY A   5      41.610 -18.390  33.663  0.00  0.00    +0.243 C 
ATOM    119  O   GLY A   5      41.600 -18.876  34.802  0.00  0.00    -0.273 OA
ATOM    120  N   GLU A   6      40.689 -17.510  33.253  0.00  0.00    -0.296 N 
ATOM    121  H   GLU A   6      40.732 -17.134  32.284  0.00  0.00    +0.150 HD
BRANCH 120 122
ATOM    122  CA  GLU A   6      39.614 -17.068  34.160  0.00  0.00    +0.160 C 
BRANCH 122 123
ATOM    123  C   GLU A   6      38.378 -17.930  34.090  0.00  0.00    +0.241 C 
ATOM    124  O   GLU A   6      37.527 -17.873  34.989  0.00  0.00    -0.273 OA
ATOM    125  N   GLY A   7      38.236 -18.677  32.979  0.00  0.00    -0.295 N 
ATOM    126  H   GLY A   7      39.012 -18.704  32.287  0.00  0.00    +0.150 HD
BRANCH 125 127
ATOM    127  CA  GLY A   7      37.023 -19.452  32.715  0.00  0.00    +0.178 C 
BRANCH 127 128
ATOM    128  C   GLY A   7      36.701 -20.434  33.846  0.00  0.00    +0.243 C 
ATOM    129  O   GLY A   7      37.608 -20.893  34.565  0.00  0.00    -0.273 OA
ATOM    130  N   CYS A   8      35.403 -20.611  34.093  0.00  0.00    -0.295 N 
ATOM    131  H   CYS A   8      34.705 -20.127  33.493  0.00  0.00    +0.150 HD
BRANCH 130 132
ATOM    132  CA  CYS A   8      34.933 -21.464  35.180  0.00  0.00    +0.176 C 
BRANCH 132 133
ATOM    133  C   CYS A   8      34.754 -20.703  36.480  0.00  0.00    +0.243 C 
ATOM    134  O   CYS A   8      34.035 -21.152  37.382  0.00  0.00    -0.273 OA
ATOM    135  N   ALA A   9      35.403 -19.543  36.573  0.00  0.00    -0.296 N 
ATOM    136  H   ALA A   9      35.990 -19.227  35.775  0.00  0.00    +0.150 HD
BRANCH 135 137
ATOM    137  CA  ALA A   9      35.314 -18.707  37.760  0.00  0.00    +0.163 C 
BRANCH 137 138
ATOM    138  C   ALA A   9      34.002 -17.945  37.844  0.00  0.00    +0.229 C 
ATOM    139  O   ALA A   9      33.207 -17.943  36.902  0.00  0.00    -0.286 OA
ENDBRANCH 137 138
ENDBRANCH 135 137
ENDBRANCH 132 133
ENDBRANCH 130 132
ENDBRANCH 127 128
BRANCH 127 140
ATOM    140  CB  GLY A   7      37.084 -20.110  31.338  0.00  0.00    +0.166 C 
BRANCH 140 141
ATOM    141  O   GLY A   7      37.959 -21.220  31.371  0.00  0.00    -0.380 OA
ATOM    142  H   GLY A   7      38.866 -20.917  31.628  0.00  0.00    +0.211 HD
ENDBRANCH 140 141
ENDBRANCH 127 140
ENDBRANCH 125 127
ENDBRANCH 122 123
BRANCH 122 143
ATOM    143  CB  GLU A   6      39.225 -15.624  33.864  0.00  0.00    +0.143 C 
BRANCH 143 144
ATOM    144  CG  GLU A   6      40.317 -14.644  34.226  0.00  0.00    +0.367 C 
ATOM    145  OD2 GLU A   6      40.895 -14.777  35.337  0.00  0.00    -0.246 OA
ATOM    146  OD1 GLU A   6      40.590 -13.742  33.409  0.00  0.00    -0.246 OA
ENDBRANCH 143 144
ENDBRANCH 122 143
ENDBRANCH 120 122
ENDBRANCH 117 118
ENDBRANCH 115 117
ENDBRANCH 112 113
BRANCH 112 147
ATOM    147  CB  TRP A   4      43.709 -17.159  28.380  0.00  0.00    +0.029 C 
BRANCH 147 148
ATOM    148  CG  TRP A   4      43.351 -17.203  26.897  0.00  0.00    +0.000 C 
BRANCH 148 149
ATOM    149  CD  TRP A   4      44.624 -17.055  26.027  0.00  0.00    -0.024 C 
BRANCH 149 150
ATOM    150  CE  TRP A   4      44.356 -17.106  24.539  0.00  0.00    -0.086 C 
BRANCH 150 151
ATOM    151  NZ  TRP A   4      45.572 -16.709  23.770  0.00  0.00    +0.380 N 
ATOM    152  HZ1 TRP A   4      45.844 -15.739  24.030  0.00  0.00    -0.089 HD
ATOM    153  HZ2 TRP A   4      46.351 -17.361  23.994  0.00  0.00    -0.089 HD
ATOM    154  HZ3 TRP A   4      45.366 -16.751  22.752  0.00  0.00    -0.089 HD
ENDBRANCH 150 151
ENDBRANCH 149 150
ENDBRANCH 148 149
ENDBRANCH 147 148
ENDBRANCH 112 147
ENDBRANCH 110 112
ENDBRANCH  90 108
ENDBRANCH  89  90
ENDBRANCH  88  89
ENDBRANCH  87  88
ENDBRANCH  86  87
ENDBRANCH   1  86
TORSDOF 68
REMARK  Name = ../refined-set-2016/4x6n/4x6n_pocket.pdb
REMARK  229 active torsions:
REMARK  status: ('A' for Active; 'I' for Inactive)
REMARK    1  A    between atoms: _1  and  _5
REMARK    2  A    between atoms: _5  and  _6
REMARK    3  A    between atoms: _5  and  _8
REMARK    4  A    between atoms: _8  and  _9
REMARK    5  A    between atoms: _12  and  _14
REMARK    6  A    between atoms: _14  and  _15
REMARK    7  A    between atoms: _14  and  _17
REMARK    8  A    between atoms: _20  and  _22
REMARK    9  A    between atoms: _22  and  _23
REMARK   10  A    between atoms: _22  and  _25
REMARK   11  A    between atoms: _25  and  _26
REMARK   12  A    between atoms: _29  and  _31
REMARK   13  A    between atoms: _31  and  _32
REMARK   14  A    between atoms: _31  and  _34
REMARK   15  A    between atoms: _34  and  _35
REMARK   16  A    between atoms: _38  and  _40
REMARK   17  A    between atoms: _40  and  _41
REMARK   18  A    between atoms: _40  and  _43
REMARK   19  A    between atoms: _43  and  _44
REMARK   20  A    between atoms: _47  and  _49
REMARK   21  A    between atoms: _49  and  _50
REMARK   22  A    between atoms: _49  and  _52
REMARK   23  A    between atoms: _52  and  _53
REMARK   24  A    between atoms: _53  and  _54
REMARK   25  A    between atoms: _59  and  _61
REMARK   26  A    between atoms: _61  and  _62
REMARK   27  A    between atoms: _61  and  _64
REMARK   28  A    between atoms: _64  and  _65
REMARK   29  A    between atoms: _65  and  _66
REMARK   30  A    between atoms: _66  and  _67
REMARK   31  A    between atoms: _76  and  _78
REMARK   32  A    between atoms: _78  and  _79
REMARK   33  A    between atoms: _78  and  _81
REMARK   34  A    between atoms: _81  and  _82
REMARK   35  A    between atoms: _87  and  _89
REMARK   36  A    between atoms: _89  and  _90
REMARK   37  A    between atoms: _89  and  _92
REMARK   38  A    between atoms: _92  and  _93
REMARK   39  A    between atoms: _96  and  _98
REMARK   40  A    between atoms: _98  and  _99
REMARK   41  A    between atoms: _98  and  _101
REMARK   42  A    between atoms: _101  and  _102
REMARK   43  A    between atoms: _102  and  _137
REMARK   44  A    between atoms: _103  and  _105
REMARK   45  A    between atoms: _105  and  _106
REMARK   46  A    between atoms: _108  and  _110
REMARK   47  A    between atoms: _110  and  _111
REMARK   48  A    between atoms: _114  and  _116
REMARK   49  A    between atoms: _116  and  _117
REMARK   50  A    between atoms: _120  and  _122
REMARK   51  A    between atoms: _122  and  _123
REMARK   52  A    between atoms: _122  and  _125
REMARK   53  A    between atoms: _125  and  _126
REMARK   54  A    between atoms: _131  and  _133
REMARK   55  A    between atoms: _133  and  _134
REMARK   56  A    between atoms: _133  and  _136
REMARK   57  A    between atoms: _136  and  _137
REMARK   58  A    between atoms: _138  and  _140
REMARK   59  A    between atoms: _140  and  _141
REMARK   60  A    between atoms: _140  and  _143
REMARK   61  A    between atoms: _143  and  _144
REMARK   62  A    between atoms: _150  and  _152
REMARK   63  A    between atoms: _152  and  _153
REMARK   64  A    between atoms: _152  and  _155
REMARK   65  A    between atoms: _155  and  _156
REMARK   66  A    between atoms: _161  and  _162
REMARK   67  A    between atoms: _164  and  _166
REMARK   68  A    between atoms: _166  and  _167
REMARK   69  A    between atoms: _169  and  _171
REMARK   70  A    between atoms: _171  and  _172
REMARK   71  A    between atoms: _171  and  _174
REMARK   72  A    between atoms: _177  and  _179
REMARK   73  A    between atoms: _179  and  _180
REMARK   74  A    between atoms: _183  and  _185
REMARK   75  A    between atoms: _185  and  _186
REMARK   76  A    between atoms: _185  and  _188
REMARK   77  A    between atoms: _188  and  _189
REMARK   78  A    between atoms: _192  and  _194
REMARK   79  A    between atoms: _194  and  _195
REMARK   80  A    between atoms: _194  and  _197
REMARK   81  A    between atoms: _200  and  _202
REMARK   82  A    between atoms: _202  and  _203
REMARK   83  A    between atoms: _202  and  _205
REMARK   84  A    between atoms: _205  and  _206
REMARK   85  A    between atoms: _216  and  _218
REMARK   86  A    between atoms: _218  and  _219
REMARK   87  A    between atoms: _221  and  _223
REMARK   88  A    between atoms: _223  and  _224
REMARK   89  A    between atoms: _223  and  _226
REMARK   90  A    between atoms: _226  and  _227
REMARK   91  A    between atoms: _232  and  _233
REMARK   92  A    between atoms: _235  and  _237
REMARK   93  A    between atoms: _237  and  _238
REMARK   94  A    between atoms: _237  and  _240
REMARK   95  A    between atoms: _240  and  _241
REMARK   96  A    between atoms: _241  and  _242
REMARK   97  A    between atoms: _242  and  _243
REMARK   98  A    between atoms: _243  and  _244
REMARK   99  A    between atoms: _248  and  _250
REMARK  100  A    between atoms: _250  and  _251
REMARK  101  A    between atoms: _250  and  _253
REMARK  102  A    between atoms: _253  and  _254
REMARK  103  A    between atoms: _257  and  _259
REMARK  104  A    between atoms: _259  and  _260
REMARK  105  A    between atoms: _259  and  _262
REMARK  106  A    between atoms: _262  and  _263
REMARK  107  A    between atoms: _266  and  _268
REMARK  108  A    between atoms: _268  and  _269
REMARK  109  A    between atoms: _268  and  _271
REMARK  110  A    between atoms: _271  and  _272
REMARK  111  A    between atoms: _272  and  _273
REMARK  112  A    between atoms: _273  and  _274
REMARK  113  A    between atoms: _274  and  _275
REMARK  114  A    between atoms: _279  and  _281
REMARK  115  A    between atoms: _281  and  _282
REMARK  116  A    between atoms: _281  and  _284
REMARK  117  A    between atoms: _284  and  _285
REMARK  118  A    between atoms: _288  and  _290
REMARK  119  A    between atoms: _290  and  _291
REMARK  120  A    between atoms: _290  and  _293
REMARK  121  A    between atoms: _293  and  _294
REMARK  122  A    between atoms: _294  and  _295
REMARK  123  A    between atoms: _300  and  _302
REMARK  124  A    between atoms: _302  and  _303
REMARK  125  A    between atoms: _302  and  _305
REMARK  126  A    between atoms: _305  and  _306
REMARK  127  A    between atoms: _311  and  _312
REMARK  128  A    between atoms: _314  and  _316
REMARK  129  A    between atoms: _316  and  _317
REMARK  130  A    between atoms: _316  and  _319
REMARK  131  A    between atoms: _319  and  _320
REMARK  132  A    between atoms: _323  and  _325
REMARK  133  A    between atoms: _325  and  _326
REMARK  134  A    between atoms: _325  and  _328
REMARK  135  A    between atoms: _330  and  _332
REMARK  136  A    between atoms: _332  and  _333
REMARK  137  A    between atoms: _336  and  _338
REMARK  138  A    between atoms: _338  and  _339
REMARK  139  A    between atoms: _338  and  _341
REMARK  140  A    between atoms: _341  and  _342
REMARK  141  A    between atoms: _345  and  _347
REMARK  142  A    between atoms: _347  and  _348
REMARK  143  A    between atoms: _351  and  _353
REMARK  144  A    between atoms: _353  and  _354
REMARK  145  A    between atoms: _353  and  _356
REMARK  146  A    between atoms: _356  and  _357
REMARK  147  A    between atoms: _357  and  _480
REMARK  148  A    between atoms: _358  and  _360
REMARK  149  A    between atoms: _360  and  _361
REMARK  150  A    between atoms: _360  and  _363
REMARK  151  A    between atoms: _363  and  _364
REMARK  152  A    between atoms: _364  and  _365
REMARK  153  A    between atoms: _365  and  _366
REMARK  154  A    between atoms: _366  and  _367
REMARK  155  A    between atoms: _371  and  _373
REMARK  156  A    between atoms: _373  and  _374
REMARK  157  A    between atoms: _376  and  _378
REMARK  158  A    between atoms: _378  and  _379
REMARK  159  A    between atoms: _378  and  _381
REMARK  160  A    between atoms: _381  and  _382
REMARK  161  A    between atoms: _385  and  _387
REMARK  162  A    between atoms: _387  and  _388
REMARK  163  A    between atoms: _387  and  _390
REMARK  164  A    between atoms: _390  and  _391
REMARK  165  A    between atoms: _393  and  _395
REMARK  166  A    between atoms: _395  and  _396
REMARK  167  A    between atoms: _398  and  _400
REMARK  168  A    between atoms: _400  and  _401
REMARK  169  A    between atoms: _403  and  _405
REMARK  170  A    between atoms: _405  and  _406
REMARK  171  A    between atoms: _405  and  _408
REMARK  172  A    between atoms: _408  and  _409
REMARK  173  A    between atoms: _412  and  _414
REMARK  174  A    between atoms: _414  and  _415
REMARK  175  A    between atoms: _414  and  _417
REMARK  176  A    between atoms: _417  and  _418
REMARK  177  A    between atoms: _421  and  _423
REMARK  178  A    between atoms: _423  and  _424
REMARK  179  A    between atoms: _423  and  _426
REMARK  180  A    between atoms: _426  and  _427
REMARK  181  A    between atoms: _430  and  _432
REMARK  182  A    between atoms: _432  and  _433
REMARK  183  A    between atoms: _432  and  _435
REMARK  184  A    between atoms: _435  and  _436
REMARK  185  A    between atoms: _438  and  _440
REMARK  186  A    between atoms: _440  and  _441
REMARK  187  A    between atoms: _440  and  _443
REMARK  188  A    between atoms: _443  and  _444
REMARK  189  A    between atoms: _454  and  _456
REMARK  190  A    between atoms: _456  and  _457
REMARK  191  A    between atoms: _459  and  _461
REMARK  192  A    between atoms: _461  and  _462
REMARK  193  A    between atoms: _461  and  _464
REMARK  194  A    between atoms: _464  and  _465
REMARK  195  A    between atoms: _465  and  _466
REMARK  196  A    between atoms: _469  and  _471
REMARK  197  A    between atoms: _471  and  _472
REMARK  198  A    between atoms: _474  and  _476
REMARK  199  A    between atoms: _476  and  _477
REMARK  200  A    between atoms: _476  and  _479
REMARK  201  A    between atoms: _479  and  _480
REMARK  202  A    between atoms: _481  and  _483
REMARK  203  A    between atoms: _483  and  _484
REMARK  204  A    between atoms: _487  and  _489
REMARK  205  A    between atoms: _489  and  _490
REMARK  206  A    between atoms: _489  and  _492
REMARK  207  A    between atoms: _492  and  _493
REMARK  208  A    between atoms: _493  and  _494
REMARK  209  A    between atoms: _499  and  _501
REMARK  210  A    between atoms: _501  and  _502
REMARK  211  A    between atoms: _501  and  _504
REMARK  212  A    between atoms: _504  and  _505
REMARK  213  A    between atoms: _505  and  _506
REMARK  214  A    between atoms: _506  and  _507
REMARK  215  A    between atoms: _517  and  _518
REMARK  216  A    between atoms: _523  and  _525
REMARK  217  A    between atoms: _525  and  _526
REMARK  218  A    between atoms: _528  and  _530
REMARK  219  A    between atoms: _530  and  _531
REMARK  220  A    between atoms: _530  and  _533
REMARK  221  A    between atoms: _536  and  _538
REMARK  222  A    between atoms: _538  and  _539
REMARK  223  A    between atoms: _538  and  _541
REMARK  224  A    between atoms: _541  and  _542
REMARK  225  A    between atoms: _547  and  _548
REMARK  226  A    between atoms: _550  and  _552
REMARK  227  A    between atoms: _552  and  _553
REMARK  228  A    between atoms: _552  and  _555
REMARK  229  A    between atoms: _555  and  _556
REMARK                            x       y       z     vdW  Elec       q    Type
REMARK                         _______ _______ _______ _____ _____    ______ ____
ROOT
ATOM      1  CA  LEU A   1      30.675 -13.378  37.876  0.00  0.00    +0.133 C 
ENDROOT
BRANCH   1   2
ATOM      2  N   LEU A   1      31.109 -14.743  38.178  0.00  0.00    -0.239 NA
ATOM      3  H   LEU A   1      30.377 -15.481  38.166  0.00  0.00    +0.142 HD
ENDBRANCH   1   2
BRANCH   1   4
ATOM      4  C   LEU A   1      29.756 -13.156  39.092  0.00  0.00    +0.224 C 
ATOM      5  O   LEU A   1      28.666 -13.752  39.170  0.00  0.00    -0.287 OA
ENDBRANCH   1   4
BRANCH   1   6
ATOM      6  CB  LEU A   1      29.933 -13.196  36.539  0.00  0.00    +0.025 C 
BRANCH   6   7
ATOM      7  CG  LEU A   1      29.283 -11.791  36.321  0.00  0.00    +0.002 C 
ATOM      8  CD2 LEU A   1      30.364 -10.660  36.218  0.00  0.00    +0.000 C 
ATOM      9  CD1 LEU A   1      28.411 -11.791  35.061  0.00  0.00    +0.000 C 
ENDBRANCH   6   7
ENDBRANCH   1   6
TORSDOF 4
REMARK  Name = ../refined-set-2016/4x6n/4x6n_pocket.pdb
REMARK  229 active torsions:
REMARK  status: ('A' for Active; 'I' for Inactive)
REMARK    1  A    between atoms: _1  and  _5
REMARK    2  A    between atoms: _5  and  _6
REMARK    3  A    between atoms: _5  and  _8
REMARK    4  A    between atoms: _8  and  _9
REMARK    5  A    between atoms: _12  and  _14
REMARK    6  A    between atoms: _14  and  _15
REMARK    7  A    between atoms: _14  and  _17
REMARK    8  A    between atoms: _20  and  _22
REMARK    9  A    between atoms: _22  and  _23
REMARK   10  A    between atoms: _22  and  _25
REMARK   11  A    between atoms: _25  and  _26
REMARK   12  A    between atoms: _29  and  _31
REMARK   13  A    between atoms: _31  and  _32
REMARK   14  A    between atoms: _31  and  _34
REMARK   15  A    between atoms: _34  and  _35
REMARK   16  A    between atoms: _38  and  _40
REMARK   17  A    between atoms: _40  and  _41
REMARK   18  A    between atoms: _40  and  _43
REMARK   19  A    between atoms: _43  and  _44
REMARK   20  A    between atoms: _47  and  _49
REMARK   21  A    between atoms: _49  and  _50
REMARK   22  A    between atoms: _49  and  _52
REMARK   23  A    between atoms: _52  and  _53
REMARK   24  A    between atoms: _53  and  _54
REMARK   25  A    between atoms: _59  and  _61
REMARK   26  A    between atoms: _61  and  _62
REMARK   27  A    between atoms: _61  and  _64
REMARK   28  A    between atoms: _64  and  _65
REMARK   29  A    between atoms: _65  and  _66
REMARK   30  A    between atoms: _66  and  _67
REMARK   31  A    between atoms: _76  and  _78
REMARK   32  A    between atoms: _78  and  _79
REMARK   33  A    between atoms: _78  and  _81
REMARK   34  A    between atoms: _81  and  _82
REMARK   35  A    between atoms: _87  and  _89
REMARK   36  A    between atoms: _89  and  _90
REMARK   37  A    between atoms: _89  and  _92
REMARK   38  A    between atoms: _92  and  _93
REMARK   39  A    between atoms: _96  and  _98
REMARK   40  A    between atoms: _98  and  _99
REMARK   41  A    between atoms: _98  and  _101
REMARK   42  A    between atoms: _101  and  _102
REMARK   43  A    between atoms: _102  and  _137
REMARK   44  A    between atoms: _103  and  _105
REMARK   45  A    between atoms: _105  and  _106
REMARK   46  A    between atoms: _108  and  _110
REMARK   47  A    between atoms: _110  and  _111
REMARK   48  A    between atoms: _114  and  _116
REMARK   49  A    between atoms: _116  and  _117
REMARK   50  A    between atoms: _120  and  _122
REMARK   51  A    between atoms: _122  and  _123
REMARK   52  A    between atoms: _122  and  _125
REMARK   53  A    between atoms: _125  and  _126
REMARK   54  A    between atoms: _131  and  _133
REMARK   55  A    between atoms: _133  and  _134
REMARK   56  A    between atoms: _133  and  _136
REMARK   57  A    between atoms: _136  and  _137
REMARK   58  A    between atoms: _138  and  _140
REMARK   59  A    between atoms: _140  and  _141
REMARK   60  A    between atoms: _140  and  _143
REMARK   61  A    between atoms: _143  and  _144
REMARK   62  A    between atoms: _150  and  _152
REMARK   63  A    between atoms: _152  and  _153
REMARK   64  A    between atoms: _152  and  _155
REMARK   65  A    between atoms: _155  and  _156
REMARK   66  A    between atoms: _161  and  _162
REMARK   67  A    between atoms: _164  and  _166
REMARK   68  A    between atoms: _166  and  _167
REMARK   69  A    between atoms: _169  and  _171
REMARK   70  A    between atoms: _171  and  _172
REMARK   71  A    between atoms: _171  and  _174
REMARK   72  A    between atoms: _177  and  _179
REMARK   73  A    between atoms: _179  and  _180
REMARK   74  A    between atoms: _183  and  _185
REMARK   75  A    between atoms: _185  and  _186
REMARK   76  A    between atoms: _185  and  _188
REMARK   77  A    between atoms: _188  and  _189
REMARK   78  A    between atoms: _192  and  _194
REMARK   79  A    between atoms: _194  and  _195
REMARK   80  A    between atoms: _194  and  _197
REMARK   81  A    between atoms: _200  and  _202
REMARK   82  A    between atoms: _202  and  _203
REMARK   83  A    between atoms: _202  and  _205
REMARK   84  A    between atoms: _205  and  _206
REMARK   85  A    between atoms: _216  and  _218
REMARK   86  A    between atoms: _218  and  _219
REMARK   87  A    between atoms: _221  and  _223
REMARK   88  A    between atoms: _223  and  _224
REMARK   89  A    between atoms: _223  and  _226
REMARK   90  A    between atoms: _226  and  _227
REMARK   91  A    between atoms: _232  and  _233
REMARK   92  A    between atoms: _235  and  _237
REMARK   93  A    between atoms: _237  and  _238
REMARK   94  A    between atoms: _237  and  _240
REMARK   95  A    between atoms: _240  and  _241
REMARK   96  A    between atoms: _241  and  _242
REMARK   97  A    between atoms: _242  and  _243
REMARK   98  A    between atoms: _243  and  _244
REMARK   99  A    between atoms: _248  and  _250
REMARK  100  A    between atoms: _250  and  _251
REMARK  101  A    between atoms: _250  and  _253
REMARK  102  A    between atoms: _253  and  _254
REMARK  103  A    between atoms: _257  and  _259
REMARK  104  A    between atoms: _259  and  _260
REMARK  105  A    between atoms: _259  and  _262
REMARK  106  A    between atoms: _262  and  _263
REMARK  107  A    between atoms: _266  and  _268
REMARK  108  A    between atoms: _268  and  _269
REMARK  109  A    between atoms: _268  and  _271
REMARK  110  A    between atoms: _271  and  _272
REMARK  111  A    between atoms: _272  and  _273
REMARK  112  A    between atoms: _273  and  _274
REMARK  113  A    between atoms: _274  and  _275
REMARK  114  A    between atoms: _279  and  _281
REMARK  115  A    between atoms: _281  and  _282
REMARK  116  A    between atoms: _281  and  _284
REMARK  117  A    between atoms: _284  and  _285
REMARK  118  A    between atoms: _288  and  _290
REMARK  119  A    between atoms: _290  and  _291
REMARK  120  A    between atoms: _290  and  _293
REMARK  121  A    between atoms: _293  and  _294
REMARK  122  A    between atoms: _294  and  _295
REMARK  123  A    between atoms: _300  and  _302
REMARK  124  A    between atoms: _302  and  _303
REMARK  125  A    between atoms: _302  and  _305
REMARK  126  A    between atoms: _305  and  _306
REMARK  127  A    between atoms: _311  and  _312
REMARK  128  A    between atoms: _314  and  _316
REMARK  129  A    between atoms: _316  and  _317
REMARK  130  A    between atoms: _316  and  _319
REMARK  131  A    between atoms: _319  and  _320
REMARK  132  A    between atoms: _323  and  _325
REMARK  133  A    between atoms: _325  and  _326
REMARK  134  A    between atoms: _325  and  _328
REMARK  135  A    between atoms: _330  and  _332
REMARK  136  A    between atoms: _332  and  _333
REMARK  137  A    between atoms: _336  and  _338
REMARK  138  A    between atoms: _338  and  _339
REMARK  139  A    between atoms: _338  and  _341
REMARK  140  A    between atoms: _341  and  _342
REMARK  141  A    between atoms: _345  and  _347
REMARK  142  A    between atoms: _347  and  _348
REMARK  143  A    between atoms: _351  and  _353
REMARK  144  A    between atoms: _353  and  _354
REMARK  145  A    between atoms: _353  and  _356
REMARK  146  A    between atoms: _356  and  _357
REMARK  147  A    between atoms: _357  and  _480
REMARK  148  A    between atoms: _358  and  _360
REMARK  149  A    between atoms: _360  and  _361
REMARK  150  A    between atoms: _360  and  _363
REMARK  151  A    between atoms: _363  and  _364
REMARK  152  A    between atoms: _364  and  _365
REMARK  153  A    between atoms: _365  and  _366
REMARK  154  A    between atoms: _366  and  _367
REMARK  155  A    between atoms: _371  and  _373
REMARK  156  A    between atoms: _373  and  _374
REMARK  157  A    between atoms: _376  and  _378
REMARK  158  A    between atoms: _378  and  _379
REMARK  159  A    between atoms: _378  and  _381
REMARK  160  A    between atoms: _381  and  _382
REMARK  161  A    between atoms: _385  and  _387
REMARK  162  A    between atoms: _387  and  _388
REMARK  163  A    between atoms: _387  and  _390
REMARK  164  A    between atoms: _390  and  _391
REMARK  165  A    between atoms: _393  and  _395
REMARK  166  A    between atoms: _395  and  _396
REMARK  167  A    between atoms: _398  and  _400
REMARK  168  A    between atoms: _400  and  _401
REMARK  169  A    between atoms: _403  and  _405
REMARK  170  A    between atoms: _405  and  _406
REMARK  171  A    between atoms: _405  and  _408
REMARK  172  A    between atoms: _408  and  _409
REMARK  173  A    between atoms: _412  and  _414
REMARK  174  A    between atoms: _414  and  _415
REMARK  175  A    between atoms: _414  and  _417
REMARK  176  A    between atoms: _417  and  _418
REMARK  177  A    between atoms: _421  and  _423
REMARK  178  A    between atoms: _423  and  _424
REMARK  179  A    between atoms: _423  and  _426
REMARK  180  A    between atoms: _426  and  _427
REMARK  181  A    between atoms: _430  and  _432
REMARK  182  A    between atoms: _432  and  _433
REMARK  183  A    between atoms: _432  and  _435
REMARK  184  A    between atoms: _435  and  _436
REMARK  185  A    between atoms: _438  and  _440
REMARK  186  A    between atoms: _440  and  _441
REMARK  187  A    between atoms: _440  and  _443
REMARK  188  A    between atoms: _443  and  _444
REMARK  189  A    between atoms: _454  and  _456
REMARK  190  A    between atoms: _456  and  _457
REMARK  191  A    between atoms: _459  and  _461
REMARK  192  A    between atoms: _461  and  _462
REMARK  193  A    between atoms: _461  and  _464
REMARK  194  A    between atoms: _464  and  _465
REMARK  195  A    between atoms: _465  and  _466
REMARK  196  A    between atoms: _469  and  _471
REMARK  197  A    between atoms: _471  and  _472
REMARK  198  A    between atoms: _474  and  _476
REMARK  199  A    between atoms: _476  and  _477
REMARK  200  A    between atoms: _476  and  _479
REMARK  201  A    between atoms: _479  and  _480
REMARK  202  A    between atoms: _481  and  _483
REMARK  203  A    between atoms: _483  and  _484
REMARK  204  A    between atoms: _487  and  _489
REMARK  205  A    between atoms: _489  and  _490
REMARK  206  A    between atoms: _489  and  _492
REMARK  207  A    between atoms: _492  and  _493
REMARK  208  A    between atoms: _493  and  _494
REMARK  209  A    between atoms: _499  and  _501
REMARK  210  A    between atoms: _501  and  _502
REMARK  211  A    between atoms: _501  and  _504
REMARK  212  A    between atoms: _504  and  _505
REMARK  213  A    between atoms: _505  and  _506
REMARK  214  A    between atoms: _506  and  _507
REMARK  215  A    between atoms: _517  and  _518
REMARK  216  A    between atoms: _523  and  _525
REMARK  217  A    between atoms: _525  and  _526
REMARK  218  A    between atoms: _528  and  _530
REMARK  219  A    between atoms: _530  and  _531
REMARK  220  A    between atoms: _530  and  _533
REMARK  221  A    between atoms: _536  and  _538
REMARK  222  A    between atoms: _538  and  _539
REMARK  223  A    between atoms: _538  and  _541
REMARK  224  A    between atoms: _541  and  _542
REMARK  225  A    between atoms: _547  and  _548
REMARK  226  A    between atoms: _550  and  _552
REMARK  227  A    between atoms: _552  and  _553
REMARK  228  A    between atoms: _552  and  _555
REMARK  229  A    between atoms: _555  and  _556
REMARK                            x       y       z     vdW  Elec       q    Type
REMARK                         _______ _______ _______ _____ _____    ______ ____
ROOT
ATOM      1  C   GLY A   3      30.975 -12.236  28.017  0.00  0.00    +0.243 C 
ATOM      2  O   GLY A   3      29.953 -11.620  28.340  0.00  0.00    -0.273 OA
ATOM      3  N   VAL A   4      30.956 -13.517  27.637  0.00  0.00    -0.297 N 
ATOM      4  H   VAL A   4      31.840 -13.945  27.296  0.00  0.00    +0.150 HD
ENDROOT
BRANCH   3   5
ATOM      5  CA  VAL A   4      29.744 -14.353  27.678  0.00  0.00    +0.149 C 
BRANCH   5   6
ATOM      6  C   VAL A   4      29.914 -15.321  28.821  0.00  0.00    +0.241 C 
ATOM      7  N   TYR A   5      28.886 -15.369  29.679  0.00  0.00    -0.297 N 
ATOM      8  H   TYR A   5      28.050 -14.790  29.461  0.00  0.00    +0.150 HD
ATOM      9  O   VAL A   4      30.962 -15.979  28.946  0.00  0.00    -0.273 OA
BRANCH   7  10
ATOM     10  CA  TYR A   5      28.852 -16.163  30.883  0.00  0.00    +0.153 C 
BRANCH  10  11
ATOM     11  C   TYR A   5      27.664 -17.100  30.897  0.00  0.00    +0.241 C 
ATOM     12  N   THR A   6      27.817 -18.249  31.591  0.00  0.00    -0.296 N 
ATOM     13  H   THR A   6      28.753 -18.495  31.973  0.00  0.00    +0.150 HD
ATOM     14  O   TYR A   5      26.608 -16.778  30.329  0.00  0.00    -0.273 OA
BRANCH  12  15
ATOM     15  CA  THR A   6      26.689 -19.153  31.814  0.00  0.00    +0.164 C 
BRANCH  15  16
ATOM     16  CB  THR A   6      27.169 -20.471  32.436  0.00  0.00    +0.136 C 
ATOM     17  CG2 THR A   6      26.009 -21.462  32.673  0.00  0.00    +0.034 C 
BRANCH  16  18
ATOM     18  OG1 THR A   6      28.144 -21.074  31.571  0.00  0.00    -0.382 OA
ATOM     19  HG1 THR A   6      28.456 -21.925  31.970  0.00  0.00    +0.210 HD
ENDBRANCH  16  18
ENDBRANCH  15  16
BRANCH  15  20
ATOM     20  C   THR A   6      25.737 -18.388  32.772  0.00  0.00    +0.229 C 
ATOM     21  O   THR A   6      26.193 -17.909  33.810  0.00  0.00    -0.286 OA
ENDBRANCH  15  20
ENDBRANCH  12  15
ENDBRANCH  10  11
BRANCH  10  22
ATOM     22  CB  TYR A   5      28.755 -15.226  32.117  0.00  0.00    +0.055 C 
BRANCH  22  23
ATOM     23  CG  TYR A   5      29.922 -14.257  32.257  0.00  0.00    -0.020 A 
ATOM     24  CD2 TYR A   5      30.915 -14.465  33.209  0.00  0.00    -0.001 A 
ATOM     25  CE2 TYR A   5      32.001 -13.593  33.329  0.00  0.00    +0.036 A 
ATOM     26  CZ  TYR A   5      32.067 -12.462  32.528  0.00  0.00    +0.134 A 
ATOM     27  CE1 TYR A   5      31.071 -12.219  31.593  0.00  0.00    +0.036 A 
ATOM     28  CD1 TYR A   5      29.999 -13.103  31.474  0.00  0.00    -0.001 A 
BRANCH  26  29
ATOM     29  OH  TYR A   5      33.119 -11.586  32.668  0.00  0.00    -0.506 OA
ATOM     30  HH  TYR A   5      33.013 -10.840  32.026  0.00  0.00    +0.292 HD
ENDBRANCH  26  29
ENDBRANCH  22  23
ENDBRANCH  10  22
ENDBRANCH   7  10
ENDBRANCH   5   6
BRANCH   5  31
ATOM     31  CB  VAL A   4      29.419 -15.055  26.336  0.00  0.00    +0.027 C 
ATOM     32  CG2 VAL A   4      28.044 -15.747  26.395  0.00  0.00    +0.002 C 
ATOM     33  CG1 VAL A   4      29.457 -14.049  25.177  0.00  0.00    +0.002 C 
ENDBRANCH   5  31
ENDBRANCH   3   5
BRANCH   1  34
ATOM     34  CA  GLY A   3      32.310 -11.509  27.952  0.00  0.00    +0.176 C 
BRANCH  34  36
ATOM     35  C   PRO A   2      31.582  -9.871  26.295  0.00  0.00    +0.241 C 
ATOM     36  N   GLY A   3      32.021 -10.149  27.517  0.00  0.00    -0.295 N 
ATOM     37  H   GLY A   3      32.164  -9.367  28.188  0.00  0.00    +0.150 HD
ATOM     38  O   PRO A   2      31.478 -10.702  25.407  0.00  0.00    -0.273 OA
BRANCH  35  42
ATOM     39  C   ARG A   1      32.572  -8.099  24.032  0.00  0.00    +0.241 C 
ATOM     40  O   ARG A   1      33.586  -8.268  24.713  0.00  0.00    -0.273 OA
ATOM     41  N   PRO A   2      31.345  -8.076  24.590  0.00  0.00    -0.272 N 
ATOM     42  CA  PRO A   2      31.208  -8.419  26.021  0.00  0.00    +0.152 C 
ATOM     43  CB  PRO A   2      29.730  -8.180  26.332  0.00  0.00    +0.031 C 
ATOM     44  CG  PRO A   2      29.066  -7.831  25.039  0.00  0.00    +0.024 C 
ATOM     45  CD  PRO A   2      30.030  -7.906  23.930  0.00  0.00    +0.094 C 
BRANCH  39  46
ATOM     46  CA  ARG A   1      32.708  -7.744  22.554  0.00  0.00    +0.145 C 
BRANCH  46  47
ATOM     47  N   ARG A   1      32.642  -6.280  22.444  0.00  0.00    -0.238 NA
ATOM     48  H   ARG A   1      33.217  -5.709  23.097  0.00  0.00    +0.142 HD
ENDBRANCH  46  47
BRANCH  46  49
ATOM     49  CB  ARG A   1      33.989  -8.325  21.945  0.00  0.00    +0.030 C 
BRANCH  49  50
ATOM     50  CG  ARG A   1      34.113  -8.194  20.437  0.00  0.00    +0.045 C 
BRANCH  50  51
ATOM     51  CD  ARG A   1      33.032  -8.902  19.640  0.00  0.00    +0.174 C 
BRANCH  51  52
ATOM     52  NE  ARG A   1      33.480  -9.097  18.258  0.00  0.00    -0.265 N 
ATOM     53  HE  ARG A   1      34.242  -8.485  17.903  0.00  0.00    +0.259 HD
ATOM     54  CZ  ARG A   1      32.977 -10.003  17.430  0.00  0.00    +0.342 C 
ATOM     55  NH2 ARG A   1      31.963 -10.770  17.809  0.00  0.00    -0.292 N 
ATOM     56 HH21 ARG A   1      31.557 -10.663  18.761  0.00  0.00    +0.255 HD
ATOM     57 HH22 ARG A   1      31.574 -11.478  17.154  0.00  0.00    +0.255 HD
ATOM     58  NH1 ARG A   1      33.476 -10.144  16.212  0.00  0.00    -0.292 N 
ATOM     59 HH11 ARG A   1      34.266  -9.543  15.901  0.00  0.00    +0.255 HD
ATOM     60 HH12 ARG A   1      33.078 -10.856  15.566  0.00  0.00    +0.255 HD
ENDBRANCH  51  52
ENDBRANCH  50  51
ENDBRANCH  49  50
ENDBRANCH  46  49
ENDBRANCH  39  46
ENDBRANCH  35  42
ENDBRANCH  34  36
ENDBRANCH   1  34
TORSDOF 21
REMARK  Name = ../refined-set-2016/4x6n/4x6n_pocket.pdb
REMARK  229 active torsions:
REMARK  status: ('A' for Active; 'I' for Inactive)
REMARK    1  A    between atoms: _1  and  _5
REMARK    2  A    between atoms: _5  and  _6
REMARK    3  A    between atoms: _5  and  _8
REMARK    4  A    between atoms: _8  and  _9
REMARK    5  A    between atoms: _12  and  _14
REMARK    6  A    between atoms: _14  and  _15
REMARK    7  A    between atoms: _14  and  _17
REMARK    8  A    between atoms: _20  and  _22
REMARK    9  A    between atoms: _22  and  _23
REMARK   10  A    between atoms: _22  and  _25
REMARK   11  A    between atoms: _25  and  _26
REMARK   12  A    between atoms: _29  and  _31
REMARK   13  A    between atoms: _31  and  _32
REMARK   14  A    between atoms: _31  and  _34
REMARK   15  A    between atoms: _34  and  _35
REMARK   16  A    between atoms: _38  and  _40
REMARK   17  A    between atoms: _40  and  _41
REMARK   18  A    between atoms: _40  and  _43
REMARK   19  A    between atoms: _43  and  _44
REMARK   20  A    between atoms: _47  and  _49
REMARK   21  A    between atoms: _49  and  _50
REMARK   22  A    between atoms: _49  and  _52
REMARK   23  A    between atoms: _52  and  _53
REMARK   24  A    between atoms: _53  and  _54
REMARK   25  A    between atoms: _59  and  _61
REMARK   26  A    between atoms: _61  and  _62
REMARK   27  A    between atoms: _61  and  _64
REMARK   28  A    between atoms: _64  and  _65
REMARK   29  A    between atoms: _65  and  _66
REMARK   30  A    between atoms: _66  and  _67
REMARK   31  A    between atoms: _76  and  _78
REMARK   32  A    between atoms: _78  and  _79
REMARK   33  A    between atoms: _78  and  _81
REMARK   34  A    between atoms: _81  and  _82
REMARK   35  A    between atoms: _87  and  _89
REMARK   36  A    between atoms: _89  and  _90
REMARK   37  A    between atoms: _89  and  _92
REMARK   38  A    between atoms: _92  and  _93
REMARK   39  A    between atoms: _96  and  _98
REMARK   40  A    between atoms: _98  and  _99
REMARK   41  A    between atoms: _98  and  _101
REMARK   42  A    between atoms: _101  and  _102
REMARK   43  A    between atoms: _102  and  _137
REMARK   44  A    between atoms: _103  and  _105
REMARK   45  A    between atoms: _105  and  _106
REMARK   46  A    between atoms: _108  and  _110
REMARK   47  A    between atoms: _110  and  _111
REMARK   48  A    between atoms: _114  and  _116
REMARK   49  A    between atoms: _116  and  _117
REMARK   50  A    between atoms: _120  and  _122
REMARK   51  A    between atoms: _122  and  _123
REMARK   52  A    between atoms: _122  and  _125
REMARK   53  A    between atoms: _125  and  _126
REMARK   54  A    between atoms: _131  and  _133
REMARK   55  A    between atoms: _133  and  _134
REMARK   56  A    between atoms: _133  and  _136
REMARK   57  A    between atoms: _136  and  _137
REMARK   58  A    between atoms: _138  and  _140
REMARK   59  A    between atoms: _140  and  _141
REMARK   60  A    between atoms: _140  and  _143
REMARK   61  A    between atoms: _143  and  _144
REMARK   62  A    between atoms: _150  and  _152
REMARK   63  A    between atoms: _152  and  _153
REMARK   64  A    between atoms: _152  and  _155
REMARK   65  A    between atoms: _155  and  _156
REMARK   66  A    between atoms: _161  and  _162
REMARK   67  A    between atoms: _164  and  _166
REMARK   68  A    between atoms: _166  and  _167
REMARK   69  A    between atoms: _169  and  _171
REMARK   70  A    between atoms: _171  and  _172
REMARK   71  A    between atoms: _171  and  _174
REMARK   72  A    between atoms: _177  and  _179
REMARK   73  A    between atoms: _179  and  _180
REMARK   74  A    between atoms: _183  and  _185
REMARK   75  A    between atoms: _185  and  _186
REMARK   76  A    between atoms: _185  and  _188
REMARK   77  A    between atoms: _188  and  _189
REMARK   78  A    between atoms: _192  and  _194
REMARK   79  A    between atoms: _194  and  _195
REMARK   80  A    between atoms: _194  and  _197
REMARK   81  A    between atoms: _200  and  _202
REMARK   82  A    between atoms: _202  and  _203
REMARK   83  A    between atoms: _202  and  _205
REMARK   84  A    between atoms: _205  and  _206
REMARK   85  A    between atoms: _216  and  _218
REMARK   86  A    between atoms: _218  and  _219
REMARK   87  A    between atoms: _221  and  _223
REMARK   88  A    between atoms: _223  and  _224
REMARK   89  A    between atoms: _223  and  _226
REMARK   90  A    between atoms: _226  and  _227
REMARK   91  A    between atoms: _232  and  _233
REMARK   92  A    between atoms: _235  and  _237
REMARK   93  A    between atoms: _237  and  _238
REMARK   94  A    between atoms: _237  and  _240
REMARK   95  A    between atoms: _240  and  _241
REMARK   96  A    between atoms: _241  and  _242
REMARK   97  A    between atoms: _242  and  _243
REMARK   98  A    between atoms: _243  and  _244
REMARK   99  A    between atoms: _248  and  _250
REMARK  100  A    between atoms: _250  and  _251
REMARK  101  A    between atoms: _250  and  _253
REMARK  102  A    between atoms: _253  and  _254
REMARK  103  A    between atoms: _257  and  _259
REMARK  104  A    between atoms: _259  and  _260
REMARK  105  A    between atoms: _259  and  _262
REMARK  106  A    between atoms: _262  and  _263
REMARK  107  A    between atoms: _266  and  _268
REMARK  108  A    between atoms: _268  and  _269
REMARK  109  A    between atoms: _268  and  _271
REMARK  110  A    between atoms: _271  and  _272
REMARK  111  A    between atoms: _272  and  _273
REMARK  112  A    between atoms: _273  and  _274
REMARK  113  A    between atoms: _274  and  _275
REMARK  114  A    between atoms: _279  and  _281
REMARK  115  A    between atoms: _281  and  _282
REMARK  116  A    between atoms: _281  and  _284
REMARK  117  A    between atoms: _284  and  _285
REMARK  118  A    between atoms: _288  and  _290
REMARK  119  A    between atoms: _290  and  _291
REMARK  120  A    between atoms: _290  and  _293
REMARK  121  A    between atoms: _293  and  _294
REMARK  122  A    between atoms: _294  and  _295
REMARK  123  A    between atoms: _300  and  _302
REMARK  124  A    between atoms: _302  and  _303
REMARK  125  A    between atoms: _302  and  _305
REMARK  126  A    between atoms: _305  and  _306
REMARK  127  A    between atoms: _311  and  _312
REMARK  128  A    between atoms: _314  and  _316
REMARK  129  A    between atoms: _316  and  _317
REMARK  130  A    between atoms: _316  and  _319
REMARK  131  A    between atoms: _319  and  _320
REMARK  132  A    between atoms: _323  and  _325
REMARK  133  A    between atoms: _325  and  _326
REMARK  134  A    between atoms: _325  and  _328
REMARK  135  A    between atoms: _330  and  _332
REMARK  136  A    between atoms: _332  and  _333
REMARK  137  A    between atoms: _336  and  _338
REMARK  138  A    between atoms: _338  and  _339
REMARK  139  A    between atoms: _338  and  _341
REMARK  140  A    between atoms: _341  and  _342
REMARK  141  A    between atoms: _345  and  _347
REMARK  142  A    between atoms: _347  and  _348
REMARK  143  A    between atoms: _351  and  _353
REMARK  144  A    between atoms: _353  and  _354
REMARK  145  A    between atoms: _353  and  _356
REMARK  146  A    between atoms: _356  and  _357
REMARK  147  A    between atoms: _357  and  _480
REMARK  148  A    between atoms: _358  and  _360
REMARK  149  A    between atoms: _360  and  _361
REMARK  150  A    between atoms: _360  and  _363
REMARK  151  A    between atoms: _363  and  _364
REMARK  152  A    between atoms: _364  and  _365
REMARK  153  A    between atoms: _365  and  _366
REMARK  154  A    between atoms: _366  and  _367
REMARK  155  A    between atoms: _371  and  _373
REMARK  156  A    between atoms: _373  and  _374
REMARK  157  A    between atoms: _376  and  _378
REMARK  158  A    between atoms: _378  and  _379
REMARK  159  A    between atoms: _378  and  _381
REMARK  160  A    between atoms: _381  and  _382
REMARK  161  A    between atoms: _385  and  _387
REMARK  162  A    between atoms: _387  and  _388
REMARK  163  A    between atoms: _387  and  _390
REMARK  164  A    between atoms: _390  and  _391
REMARK  165  A    between atoms: _393  and  _395
REMARK  166  A    between atoms: _395  and  _396
REMARK  167  A    between atoms: _398  and  _400
REMARK  168  A    between atoms: _400  and  _401
REMARK  169  A    between atoms: _403  and  _405
REMARK  170  A    between atoms: _405  and  _406
REMARK  171  A    between atoms: _405  and  _408
REMARK  172  A    between atoms: _408  and  _409
REMARK  173  A    between atoms: _412  and  _414
REMARK  174  A    between atoms: _414  and  _415
REMARK  175  A    between atoms: _414  and  _417
REMARK  176  A    between atoms: _417  and  _418
REMARK  177  A    between atoms: _421  and  _423
REMARK  178  A    between atoms: _423  and  _424
REMARK  179  A    between atoms: _423  and  _426
REMARK  180  A    between atoms: _426  and  _427
REMARK  181  A    between atoms: _430  and  _432
REMARK  182  A    between atoms: _432  and  _433
REMARK  183  A    between atoms: _432  and  _435
REMARK  184  A    between atoms: _435  and  _436
REMARK  185  A    between atoms: _438  and  _440
REMARK  186  A    between atoms: _440  and  _441
REMARK  187  A    between atoms: _440  and  _443
REMARK  188  A    between atoms: _443  and  _444
REMARK  189  A    between atoms: _454  and  _456
REMARK  190  A    between atoms: _456  and  _457
REMARK  191  A    between atoms: _459  and  _461
REMARK  192  A    between atoms: _461  and  _462
REMARK  193  A    between atoms: _461  and  _464
REMARK  194  A    between atoms: _464  and  _465
REMARK  195  A    between atoms: _465  and  _466
REMARK  196  A    between atoms: _469  and  _471
REMARK  197  A    between atoms: _471  and  _472
REMARK  198  A    between atoms: _474  and  _476
REMARK  199  A    between atoms: _476  and  _477
REMARK  200  A    between atoms: _476  and  _479
REMARK  201  A    between atoms: _479  and  _480
REMARK  202  A    between atoms: _481  and  _483
REMARK  203  A    between atoms: _483  and  _484
REMARK  204  A    between atoms: _487  and  _489
REMARK  205  A    between atoms: _489  and  _490
REMARK  206  A    between atoms: _489  and  _492
REMARK  207  A    between atoms: _492  and  _493
REMARK  208  A    between atoms: _493  and  _494
REMARK  209  A    between atoms: _499  and  _501
REMARK  210  A    between atoms: _501  and  _502
REMARK  211  A    between atoms: _501  and  _504
REMARK  212  A    between atoms: _504  and  _505
REMARK  213  A    between atoms: _505  and  _506
REMARK  214  A    between atoms: _506  and  _507
REMARK  215  A    between atoms: _517  and  _518
REMARK  216  A    between atoms: _523  and  _525
REMARK  217  A    between atoms: _525  and  _526
REMARK  218  A    between atoms: _528  and  _530
REMARK  219  A    between atoms: _530  and  _531
REMARK  220  A    between atoms: _530  and  _533
REMARK  221  A    between atoms: _536  and  _538
REMARK  222  A    between atoms: _538  and  _539
REMARK  223  A    between atoms: _538  and  _541
REMARK  224  A    between atoms: _541  and  _542
REMARK  225  A    between atoms: _547  and  _548
REMARK  226  A    between atoms: _550  and  _552
REMARK  227  A    between atoms: _552  and  _553
REMARK  228  A    between atoms: _552  and  _555
REMARK  229  A    between atoms: _555  and  _556
REMARK                            x       y       z     vdW  Elec       q    Type
REMARK                         _______ _______ _______ _____ _____    ______ ____
ROOT
ATOM      1  O   HOH     1      40.037 -11.719  18.934  0.00  0.00    +0.000 OA
ENDROOT
TORSDOF 0
REMARK  Name = ../refined-set-2016/4x6n/4x6n_pocket.pdb
REMARK  229 active torsions:
REMARK  status: ('A' for Active; 'I' for Inactive)
REMARK    1  A    between atoms: _1  and  _5
REMARK    2  A    between atoms: _5  and  _6
REMARK    3  A    between atoms: _5  and  _8
REMARK    4  A    between atoms: _8  and  _9
REMARK    5  A    between atoms: _12  and  _14
REMARK    6  A    between atoms: _14  and  _15
REMARK    7  A    between atoms: _14  and  _17
REMARK    8  A    between atoms: _20  and  _22
REMARK    9  A    between atoms: _22  and  _23
REMARK   10  A    between atoms: _22  and  _25
REMARK   11  A    between atoms: _25  and  _26
REMARK   12  A    between atoms: _29  and  _31
REMARK   13  A    between atoms: _31  and  _32
REMARK   14  A    between atoms: _31  and  _34
REMARK   15  A    between atoms: _34  and  _35
REMARK   16  A    between atoms: _38  and  _40
REMARK   17  A    between atoms: _40  and  _41
REMARK   18  A    between atoms: _40  and  _43
REMARK   19  A    between atoms: _43  and  _44
REMARK   20  A    between atoms: _47  and  _49
REMARK   21  A    between atoms: _49  and  _50
REMARK   22  A    between atoms: _49  and  _52
REMARK   23  A    between atoms: _52  and  _53
REMARK   24  A    between atoms: _53  and  _54
REMARK   25  A    between atoms: _59  and  _61
REMARK   26  A    between atoms: _61  and  _62
REMARK   27  A    between atoms: _61  and  _64
REMARK   28  A    between atoms: _64  and  _65
REMARK   29  A    between atoms: _65  and  _66
REMARK   30  A    between atoms: _66  and  _67
REMARK   31  A    between atoms: _76  and  _78
REMARK   32  A    between atoms: _78  and  _79
REMARK   33  A    between atoms: _78  and  _81
REMARK   34  A    between atoms: _81  and  _82
REMARK   35  A    between atoms: _87  and  _89
REMARK   36  A    between atoms: _89  and  _90
REMARK   37  A    between atoms: _89  and  _92
REMARK   38  A    between atoms: _92  and  _93
REMARK   39  A    between atoms: _96  and  _98
REMARK   40  A    between atoms: _98  and  _99
REMARK   41  A    between atoms: _98  and  _101
REMARK   42  A    between atoms: _101  and  _102
REMARK   43  A    between atoms: _102  and  _137
REMARK   44  A    between atoms: _103  and  _105
REMARK   45  A    between atoms: _105  and  _106
REMARK   46  A    between atoms: _108  and  _110
REMARK   47  A    between atoms: _110  and  _111
REMARK   48  A    between atoms: _114  and  _116
REMARK   49  A    between atoms: _116  and  _117
REMARK   50  A    between atoms: _120  and  _122
REMARK   51  A    between atoms: _122  and  _123
REMARK   52  A    between atoms: _122  and  _125
REMARK   53  A    between atoms: _125  and  _126
REMARK   54  A    between atoms: _131  and  _133
REMARK   55  A    between atoms: _133  and  _134
REMARK   56  A    between atoms: _133  and  _136
REMARK   57  A    between atoms: _136  and  _137
REMARK   58  A    between atoms: _138  and  _140
REMARK   59  A    between atoms: _140  and  _141
REMARK   60  A    between atoms: _140  and  _143
REMARK   61  A    between atoms: _143  and  _144
REMARK   62  A    between atoms: _150  and  _152
REMARK   63  A    between atoms: _152  and  _153
REMARK   64  A    between atoms: _152  and  _155
REMARK   65  A    between atoms: _155  and  _156
REMARK   66  A    between atoms: _161  and  _162
REMARK   67  A    between atoms: _164  and  _166
REMARK   68  A    between atoms: _166  and  _167
REMARK   69  A    between atoms: _169  and  _171
REMARK   70  A    between atoms: _171  and  _172
REMARK   71  A    between atoms: _171  and  _174
REMARK   72  A    between atoms: _177  and  _179
REMARK   73  A    between atoms: _179  and  _180
REMARK   74  A    between atoms: _183  and  _185
REMARK   75  A    between atoms: _185  and  _186
REMARK   76  A    between atoms: _185  and  _188
REMARK   77  A    between atoms: _188  and  _189
REMARK   78  A    between atoms: _192  and  _194
REMARK   79  A    between atoms: _194  and  _195
REMARK   80  A    between atoms: _194  and  _197
REMARK   81  A    between atoms: _200  and  _202
REMARK   82  A    between atoms: _202  and  _203
REMARK   83  A    between atoms: _202  and  _205
REMARK   84  A    between atoms: _205  and  _206
REMARK   85  A    between atoms: _216  and  _218
REMARK   86  A    between atoms: _218  and  _219
REMARK   87  A    between atoms: _221  and  _223
REMARK   88  A    between atoms: _223  and  _224
REMARK   89  A    between atoms: _223  and  _226
REMARK   90  A    between atoms: _226  and  _227
REMARK   91  A    between atoms: _232  and  _233
REMARK   92  A    between atoms: _235  and  _237
REMARK   93  A    between atoms: _237  and  _238
REMARK   94  A    between atoms: _237  and  _240
REMARK   95  A    between atoms: _240  and  _241
REMARK   96  A    between atoms: _241  and  _242
REMARK   97  A    between atoms: _242  and  _243
REMARK   98  A    between atoms: _243  and  _244
REMARK   99  A    between atoms: _248  and  _250
REMARK  100  A    between atoms: _250  and  _251
REMARK  101  A    between atoms: _250  and  _253
REMARK  102  A    between atoms: _253  and  _254
REMARK  103  A    between atoms: _257  and  _259
REMARK  104  A    between atoms: _259  and  _260
REMARK  105  A    between atoms: _259  and  _262
REMARK  106  A    between atoms: _262  and  _263
REMARK  107  A    between atoms: _266  and  _268
REMARK  108  A    between atoms: _268  and  _269
REMARK  109  A    between atoms: _268  and  _271
REMARK  110  A    between atoms: _271  and  _272
REMARK  111  A    between atoms: _272  and  _273
REMARK  112  A    between atoms: _273  and  _274
REMARK  113  A    between atoms: _274  and  _275
REMARK  114  A    between atoms: _279  and  _281
REMARK  115  A    between atoms: _281  and  _282
REMARK  116  A    between atoms: _281  and  _284
REMARK  117  A    between atoms: _284  and  _285
REMARK  118  A    between atoms: _288  and  _290
REMARK  119  A    between atoms: _290  and  _291
REMARK  120  A    between atoms: _290  and  _293
REMARK  121  A    between atoms: _293  and  _294
REMARK  122  A    between atoms: _294  and  _295
REMARK  123  A    between atoms: _300  and  _302
REMARK  124  A    between atoms: _302  and  _303
REMARK  125  A    between atoms: _302  and  _305
REMARK  126  A    between atoms: _305  and  _306
REMARK  127  A    between atoms: _311  and  _312
REMARK  128  A    between atoms: _314  and  _316
REMARK  129  A    between atoms: _316  and  _317
REMARK  130  A    between atoms: _316  and  _319
REMARK  131  A    between atoms: _319  and  _320
REMARK  132  A    between atoms: _323  and  _325
REMARK  133  A    between atoms: _325  and  _326
REMARK  134  A    between atoms: _325  and  _328
REMARK  135  A    between atoms: _330  and  _332
REMARK  136  A    between atoms: _332  and  _333
REMARK  137  A    between atoms: _336  and  _338
REMARK  138  A    between atoms: _338  and  _339
REMARK  139  A    between atoms: _338  and  _341
REMARK  140  A    between atoms: _341  and  _342
REMARK  141  A    between atoms: _345  and  _347
REMARK  142  A    between atoms: _347  and  _348
REMARK  143  A    between atoms: _351  and  _353
REMARK  144  A    between atoms: _353  and  _354
REMARK  145  A    between atoms: _353  and  _356
REMARK  146  A    between atoms: _356  and  _357
REMARK  147  A    between atoms: _357  and  _480
REMARK  148  A    between atoms: _358  and  _360
REMARK  149  A    between atoms: _360  and  _361
REMARK  150  A    between atoms: _360  and  _363
REMARK  151  A    between atoms: _363  and  _364
REMARK  152  A    between atoms: _364  and  _365
REMARK  153  A    between atoms: _365  and  _366
REMARK  154  A    between atoms: _366  and  _367
REMARK  155  A    between atoms: _371  and  _373
REMARK  156  A    between atoms: _373  and  _374
REMARK  157  A    between atoms: _376  and  _378
REMARK  158  A    between atoms: _378  and  _379
REMARK  159  A    between atoms: _378  and  _381
REMARK  160  A    between atoms: _381  and  _382
REMARK  161  A    between atoms: _385  and  _387
REMARK  162  A    between atoms: _387  and  _388
REMARK  163  A    between atoms: _387  and  _390
REMARK  164  A    between atoms: _390  and  _391
REMARK  165  A    between atoms: _393  and  _395
REMARK  166  A    between atoms: _395  and  _396
REMARK  167  A    between atoms: _398  and  _400
REMARK  168  A    between atoms: _400  and  _401
REMARK  169  A    between atoms: _403  and  _405
REMARK  170  A    between atoms: _405  and  _406
REMARK  171  A    between atoms: _405  and  _408
REMARK  172  A    between atoms: _408  and  _409
REMARK  173  A    between atoms: _412  and  _414
REMARK  174  A    between atoms: _414  and  _415
REMARK  175  A    between atoms: _414  and  _417
REMARK  176  A    between atoms: _417  and  _418
REMARK  177  A    between atoms: _421  and  _423
REMARK  178  A    between atoms: _423  and  _424
REMARK  179  A    between atoms: _423  and  _426
REMARK  180  A    between atoms: _426  and  _427
REMARK  181  A    between atoms: _430  and  _432
REMARK  182  A    between atoms: _432  and  _433
REMARK  183  A    between atoms: _432  and  _435
REMARK  184  A    between atoms: _435  and  _436
REMARK  185  A    between atoms: _438  and  _440
REMARK  186  A    between atoms: _440  and  _441
REMARK  187  A    between atoms: _440  and  _443
REMARK  188  A    between atoms: _443  and  _444
REMARK  189  A    between atoms: _454  and  _456
REMARK  190  A    between atoms: _456  and  _457
REMARK  191  A    between atoms: _459  and  _461
REMARK  192  A    between atoms: _461  and  _462
REMARK  193  A    between atoms: _461  and  _464
REMARK  194  A    between atoms: _464  and  _465
REMARK  195  A    between atoms: _465  and  _466
REMARK  196  A    between atoms: _469  and  _471
REMARK  197  A    between atoms: _471  and  _472
REMARK  198  A    between atoms: _474  and  _476
REMARK  199  A    between atoms: _476  and  _477
REMARK  200  A    between atoms: _476  and  _479
REMARK  201  A    between atoms: _479  and  _480
REMARK  202  A    between atoms: _481  and  _483
REMARK  203  A    between atoms: _483  and  _484
REMARK  204  A    between atoms: _487  and  _489
REMARK  205  A    between atoms: _489  and  _490
REMARK  206  A    between atoms: _489  and  _492
REMARK  207  A    between atoms: _492  and  _493
REMARK  208  A    between atoms: _493  and  _494
REMARK  209  A    between atoms: _499  and  _501
REMARK  210  A    between atoms: _501  and  _502
REMARK  211  A    between atoms: _501  and  _504
REMARK  212  A    between atoms: _504  and  _505
REMARK  213  A    between atoms: _505  and  _506
REMARK  214  A    between atoms: _506  and  _507
REMARK  215  A    between atoms: _517  and  _518
REMARK  216  A    between atoms: _523  and  _525
REMARK  217  A    between atoms: _525  and  _526
REMARK  218  A    between atoms: _528  and  _530
REMARK  219  A    between atoms: _530  and  _531
REMARK  220  A    between atoms: _530  and  _533
REMARK  221  A    between atoms: _536  and  _538
REMARK  222  A    between atoms: _538  and  _539
REMARK  223  A    between atoms: _538  and  _541
REMARK  224  A    between atoms: _541  and  _542
REMARK  225  A    between atoms: _547  and  _548
REMARK  226  A    between atoms: _550  and  _552
REMARK  227  A    between atoms: _552  and  _553
REMARK  228  A    between atoms: _552  and  _555
REMARK  229  A    between atoms: _555  and  _556
REMARK                            x       y       z     vdW  Elec       q    Type
REMARK                         _______ _______ _______ _____ _____    ______ ____
ROOT
ATOM      1  O   HOH     1      36.100 -26.949  24.539  0.00  0.00    +0.000 OA
ENDROOT
TORSDOF 0
REMARK  Name = ../refined-set-2016/4x6n/4x6n_pocket.pdb
REMARK  229 active torsions:
REMARK  status: ('A' for Active; 'I' for Inactive)
REMARK    1  A    between atoms: _1  and  _5
REMARK    2  A    between atoms: _5  and  _6
REMARK    3  A    between atoms: _5  and  _8
REMARK    4  A    between atoms: _8  and  _9
REMARK    5  A    between atoms: _12  and  _14
REMARK    6  A    between atoms: _14  and  _15
REMARK    7  A    between atoms: _14  and  _17
REMARK    8  A    between atoms: _20  and  _22
REMARK    9  A    between atoms: _22  and  _23
REMARK   10  A    between atoms: _22  and  _25
REMARK   11  A    between atoms: _25  and  _26
REMARK   12  A    between atoms: _29  and  _31
REMARK   13  A    between atoms: _31  and  _32
REMARK   14  A    between atoms: _31  and  _34
REMARK   15  A    between atoms: _34  and  _35
REMARK   16  A    between atoms: _38  and  _40
REMARK   17  A    between atoms: _40  and  _41
REMARK   18  A    between atoms: _40  and  _43
REMARK   19  A    between atoms: _43  and  _44
REMARK   20  A    between atoms: _47  and  _49
REMARK   21  A    between atoms: _49  and  _50
REMARK   22  A    between atoms: _49  and  _52
REMARK   23  A    between atoms: _52  and  _53
REMARK   24  A    between atoms: _53  and  _54
REMARK   25  A    between atoms: _59  and  _61
REMARK   26  A    between atoms: _61  and  _62
REMARK   27  A    between atoms: _61  and  _64
REMARK   28  A    between atoms: _64  and  _65
REMARK   29  A    between atoms: _65  and  _66
REMARK   30  A    between atoms: _66  and  _67
REMARK   31  A    between atoms: _76  and  _78
REMARK   32  A    between atoms: _78  and  _79
REMARK   33  A    between atoms: _78  and  _81
REMARK   34  A    between atoms: _81  and  _82
REMARK   35  A    between atoms: _87  and  _89
REMARK   36  A    between atoms: _89  and  _90
REMARK   37  A    between atoms: _89  and  _92
REMARK   38  A    between atoms: _92  and  _93
REMARK   39  A    between atoms: _96  and  _98
REMARK   40  A    between atoms: _98  and  _99
REMARK   41  A    between atoms: _98  and  _101
REMARK   42  A    between atoms: _101  and  _102
REMARK   43  A    between atoms: _102  and  _137
REMARK   44  A    between atoms: _103  and  _105
REMARK   45  A    between atoms: _105  and  _106
REMARK   46  A    between atoms: _108  and  _110
REMARK   47  A    between atoms: _110  and  _111
REMARK   48  A    between atoms: _114  and  _116
REMARK   49  A    between atoms: _116  and  _117
REMARK   50  A    between atoms: _120  and  _122
REMARK   51  A    between atoms: _122  and  _123
REMARK   52  A    between atoms: _122  and  _125
REMARK   53  A    between atoms: _125  and  _126
REMARK   54  A    between atoms: _131  and  _133
REMARK   55  A    between atoms: _133  and  _134
REMARK   56  A    between atoms: _133  and  _136
REMARK   57  A    between atoms: _136  and  _137
REMARK   58  A    between atoms: _138  and  _140
REMARK   59  A    between atoms: _140  and  _141
REMARK   60  A    between atoms: _140  and  _143
REMARK   61  A    between atoms: _143  and  _144
REMARK   62  A    between atoms: _150  and  _152
REMARK   63  A    between atoms: _152  and  _153
REMARK   64  A    between atoms: _152  and  _155
REMARK   65  A    between atoms: _155  and  _156
REMARK   66  A    between atoms: _161  and  _162
REMARK   67  A    between atoms: _164  and  _166
REMARK   68  A    between atoms: _166  and  _167
REMARK   69  A    between atoms: _169  and  _171
REMARK   70  A    between atoms: _171  and  _172
REMARK   71  A    between atoms: _171  and  _174
REMARK   72  A    between atoms: _177  and  _179
REMARK   73  A    between atoms: _179  and  _180
REMARK   74  A    between atoms: _183  and  _185
REMARK   75  A    between atoms: _185  and  _186
REMARK   76  A    between atoms: _185  and  _188
REMARK   77  A    between atoms: _188  and  _189
REMARK   78  A    between atoms: _192  and  _194
REMARK   79  A    between atoms: _194  and  _195
REMARK   80  A    between atoms: _194  and  _197
REMARK   81  A    between atoms: _200  and  _202
REMARK   82  A    between atoms: _202  and  _203
REMARK   83  A    between atoms: _202  and  _205
REMARK   84  A    between atoms: _205  and  _206
REMARK   85  A    between atoms: _216  and  _218
REMARK   86  A    between atoms: _218  and  _219
REMARK   87  A    between atoms: _221  and  _223
REMARK   88  A    between atoms: _223  and  _224
REMARK   89  A    between atoms: _223  and  _226
REMARK   90  A    between atoms: _226  and  _227
REMARK   91  A    between atoms: _232  and  _233
REMARK   92  A    between atoms: _235  and  _237
REMARK   93  A    between atoms: _237  and  _238
REMARK   94  A    between atoms: _237  and  _240
REMARK   95  A    between atoms: _240  and  _241
REMARK   96  A    between atoms: _241  and  _242
REMARK   97  A    between atoms: _242  and  _243
REMARK   98  A    between atoms: _243  and  _244
REMARK   99  A    between atoms: _248  and  _250
REMARK  100  A    between atoms: _250  and  _251
REMARK  101  A    between atoms: _250  and  _253
REMARK  102  A    between atoms: _253  and  _254
REMARK  103  A    between atoms: _257  and  _259
REMARK  104  A    between atoms: _259  and  _260
REMARK  105  A    between atoms: _259  and  _262
REMARK  106  A    between atoms: _262  and  _263
REMARK  107  A    between atoms: _266  and  _268
REMARK  108  A    between atoms: _268  and  _269
REMARK  109  A    between atoms: _268  and  _271
REMARK  110  A    between atoms: _271  and  _272
REMARK  111  A    between atoms: _272  and  _273
REMARK  112  A    between atoms: _273  and  _274
REMARK  113  A    between atoms: _274  and  _275
REMARK  114  A    between atoms: _279  and  _281
REMARK  115  A    between atoms: _281  and  _282
REMARK  116  A    between atoms: _281  and  _284
REMARK  117  A    between atoms: _284  and  _285
REMARK  118  A    between atoms: _288  and  _290
REMARK  119  A    between atoms: _290  and  _291
REMARK  120  A    between atoms: _290  and  _293
REMARK  121  A    between atoms: _293  and  _294
REMARK  122  A    between atoms: _294  and  _295
REMARK  123  A    between atoms: _300  and  _302
REMARK  124  A    between atoms: _302  and  _303
REMARK  125  A    between atoms: _302  and  _305
REMARK  126  A    between atoms: _305  and  _306
REMARK  127  A    between atoms: _311  and  _312
REMARK  128  A    between atoms: _314  and  _316
REMARK  129  A    between atoms: _316  and  _317
REMARK  130  A    between atoms: _316  and  _319
REMARK  131  A    between atoms: _319  and  _320
REMARK  132  A    between atoms: _323  and  _325
REMARK  133  A    between atoms: _325  and  _326
REMARK  134  A    between atoms: _325  and  _328
REMARK  135  A    between atoms: _330  and  _332
REMARK  136  A    between atoms: _332  and  _333
REMARK  137  A    between atoms: _336  and  _338
REMARK  138  A    between atoms: _338  and  _339
REMARK  139  A    between atoms: _338  and  _341
REMARK  140  A    between atoms: _341  and  _342
REMARK  141  A    between atoms: _345  and  _347
REMARK  142  A    between atoms: _347  and  _348
REMARK  143  A    between atoms: _351  and  _353
REMARK  144  A    between atoms: _353  and  _354
REMARK  145  A    between atoms: _353  and  _356
REMARK  146  A    between atoms: _356  and  _357
REMARK  147  A    between atoms: _357  and  _480
REMARK  148  A    between atoms: _358  and  _360
REMARK  149  A    between atoms: _360  and  _361
REMARK  150  A    between atoms: _360  and  _363
REMARK  151  A    between atoms: _363  and  _364
REMARK  152  A    between atoms: _364  and  _365
REMARK  153  A    between atoms: _365  and  _366
REMARK  154  A    between atoms: _366  and  _367
REMARK  155  A    between atoms: _371  and  _373
REMARK  156  A    between atoms: _373  and  _374
REMARK  157  A    between atoms: _376  and  _378
REMARK  158  A    between atoms: _378  and  _379
REMARK  159  A    between atoms: _378  and  _381
REMARK  160  A    between atoms: _381  and  _382
REMARK  161  A    between atoms: _385  and  _387
REMARK  162  A    between atoms: _387  and  _388
REMARK  163  A    between atoms: _387  and  _390
REMARK  164  A    between atoms: _390  and  _391
REMARK  165  A    between atoms: _393  and  _395
REMARK  166  A    between atoms: _395  and  _396
REMARK  167  A    between atoms: _398  and  _400
REMARK  168  A    between atoms: _400  and  _401
REMARK  169  A    between atoms: _403  and  _405
REMARK  170  A    between atoms: _405  and  _406
REMARK  171  A    between atoms: _405  and  _408
REMARK  172  A    between atoms: _408  and  _409
REMARK  173  A    between atoms: _412  and  _414
REMARK  174  A    between atoms: _414  and  _415
REMARK  175  A    between atoms: _414  and  _417
REMARK  176  A    between atoms: _417  and  _418
REMARK  177  A    between atoms: _421  and  _423
REMARK  178  A    between atoms: _423  and  _424
REMARK  179  A    between atoms: _423  and  _426
REMARK  180  A    between atoms: _426  and  _427
REMARK  181  A    between atoms: _430  and  _432
REMARK  182  A    between atoms: _432  and  _433
REMARK  183  A    between atoms: _432  and  _435
REMARK  184  A    between atoms: _435  and  _436
REMARK  185  A    between atoms: _438  and  _440
REMARK  186  A    between atoms: _440  and  _441
REMARK  187  A    between atoms: _440  and  _443
REMARK  188  A    between atoms: _443  and  _444
REMARK  189  A    between atoms: _454  and  _456
REMARK  190  A    between atoms: _456  and  _457
REMARK  191  A    between atoms: _459  and  _461
REMARK  192  A    between atoms: _461  and  _462
REMARK  193  A    between atoms: _461  and  _464
REMARK  194  A    between atoms: _464  and  _465
REMARK  195  A    between atoms: _465  and  _466
REMARK  196  A    between atoms: _469  and  _471
REMARK  197  A    between atoms: _471  and  _472
REMARK  198  A    between atoms: _474  and  _476
REMARK  199  A    between atoms: _476  and  _477
REMARK  200  A    between atoms: _476  and  _479
REMARK  201  A    between atoms: _479  and  _480
REMARK  202  A    between atoms: _481  and  _483
REMARK  203  A    between atoms: _483  and  _484
REMARK  204  A    between atoms: _487  and  _489
REMARK  205  A    between atoms: _489  and  _490
REMARK  206  A    between atoms: _489  and  _492
REMARK  207  A    between atoms: _492  and  _493
REMARK  208  A    between atoms: _493  and  _494
REMARK  209  A    between atoms: _499  and  _501
REMARK  210  A    between atoms: _501  and  _502
REMARK  211  A    between atoms: _501  and  _504
REMARK  212  A    between atoms: _504  and  _505
REMARK  213  A    between atoms: _505  and  _506
REMARK  214  A    between atoms: _506  and  _507
REMARK  215  A    between atoms: _517  and  _518
REMARK  216  A    between atoms: _523  and  _525
REMARK  217  A    between atoms: _525  and  _526
REMARK  218  A    between atoms: _528  and  _530
REMARK  219  A    between atoms: _530  and  _531
REMARK  220  A    between atoms: _530  and  _533
REMARK  221  A    between atoms: _536  and  _538
REMARK  222  A    between atoms: _538  and  _539
REMARK  223  A    between atoms: _538  and  _541
REMARK  224  A    between atoms: _541  and  _542
REMARK  225  A    between atoms: _547  and  _548
REMARK  226  A    between atoms: _550  and  _552
REMARK  227  A    between atoms: _552  and  _553
REMARK  228  A    between atoms: _552  and  _555
REMARK  229  A    between atoms: _555  and  _556
REMARK                            x       y       z     vdW  Elec       q    Type
REMARK                         _______ _______ _______ _____ _____    ______ ____
ROOT
ATOM      1  O   HOH     1      37.959 -26.402  26.229  0.00  0.00    +0.000 OA
ENDROOT
TORSDOF 0
REMARK  Name = ../refined-set-2016/4x6n/4x6n_pocket.pdb
REMARK  229 active torsions:
REMARK  status: ('A' for Active; 'I' for Inactive)
REMARK    1  A    between atoms: _1  and  _5
REMARK    2  A    between atoms: _5  and  _6
REMARK    3  A    between atoms: _5  and  _8
REMARK    4  A    between atoms: _8  and  _9
REMARK    5  A    between atoms: _12  and  _14
REMARK    6  A    between atoms: _14  and  _15
REMARK    7  A    between atoms: _14  and  _17
REMARK    8  A    between atoms: _20  and  _22
REMARK    9  A    between atoms: _22  and  _23
REMARK   10  A    between atoms: _22  and  _25
REMARK   11  A    between atoms: _25  and  _26
REMARK   12  A    between atoms: _29  and  _31
REMARK   13  A    between atoms: _31  and  _32
REMARK   14  A    between atoms: _31  and  _34
REMARK   15  A    between atoms: _34  and  _35
REMARK   16  A    between atoms: _38  and  _40
REMARK   17  A    between atoms: _40  and  _41
REMARK   18  A    between atoms: _40  and  _43
REMARK   19  A    between atoms: _43  and  _44
REMARK   20  A    between atoms: _47  and  _49
REMARK   21  A    between atoms: _49  and  _50
REMARK   22  A    between atoms: _49  and  _52
REMARK   23  A    between atoms: _52  and  _53
REMARK   24  A    between atoms: _53  and  _54
REMARK   25  A    between atoms: _59  and  _61
REMARK   26  A    between atoms: _61  and  _62
REMARK   27  A    between atoms: _61  and  _64
REMARK   28  A    between atoms: _64  and  _65
REMARK   29  A    between atoms: _65  and  _66
REMARK   30  A    between atoms: _66  and  _67
REMARK   31  A    between atoms: _76  and  _78
REMARK   32  A    between atoms: _78  and  _79
REMARK   33  A    between atoms: _78  and  _81
REMARK   34  A    between atoms: _81  and  _82
REMARK   35  A    between atoms: _87  and  _89
REMARK   36  A    between atoms: _89  and  _90
REMARK   37  A    between atoms: _89  and  _92
REMARK   38  A    between atoms: _92  and  _93
REMARK   39  A    between atoms: _96  and  _98
REMARK   40  A    between atoms: _98  and  _99
REMARK   41  A    between atoms: _98  and  _101
REMARK   42  A    between atoms: _101  and  _102
REMARK   43  A    between atoms: _102  and  _137
REMARK   44  A    between atoms: _103  and  _105
REMARK   45  A    between atoms: _105  and  _106
REMARK   46  A    between atoms: _108  and  _110
REMARK   47  A    between atoms: _110  and  _111
REMARK   48  A    between atoms: _114  and  _116
REMARK   49  A    between atoms: _116  and  _117
REMARK   50  A    between atoms: _120  and  _122
REMARK   51  A    between atoms: _122  and  _123
REMARK   52  A    between atoms: _122  and  _125
REMARK   53  A    between atoms: _125  and  _126
REMARK   54  A    between atoms: _131  and  _133
REMARK   55  A    between atoms: _133  and  _134
REMARK   56  A    between atoms: _133  and  _136
REMARK   57  A    between atoms: _136  and  _137
REMARK   58  A    between atoms: _138  and  _140
REMARK   59  A    between atoms: _140  and  _141
REMARK   60  A    between atoms: _140  and  _143
REMARK   61  A    between atoms: _143  and  _144
REMARK   62  A    between atoms: _150  and  _152
REMARK   63  A    between atoms: _152  and  _153
REMARK   64  A    between atoms: _152  and  _155
REMARK   65  A    between atoms: _155  and  _156
REMARK   66  A    between atoms: _161  and  _162
REMARK   67  A    between atoms: _164  and  _166
REMARK   68  A    between atoms: _166  and  _167
REMARK   69  A    between atoms: _169  and  _171
REMARK   70  A    between atoms: _171  and  _172
REMARK   71  A    between atoms: _171  and  _174
REMARK   72  A    between atoms: _177  and  _179
REMARK   73  A    between atoms: _179  and  _180
REMARK   74  A    between atoms: _183  and  _185
REMARK   75  A    between atoms: _185  and  _186
REMARK   76  A    between atoms: _185  and  _188
REMARK   77  A    between atoms: _188  and  _189
REMARK   78  A    between atoms: _192  and  _194
REMARK   79  A    between atoms: _194  and  _195
REMARK   80  A    between atoms: _194  and  _197
REMARK   81  A    between atoms: _200  and  _202
REMARK   82  A    between atoms: _202  and  _203
REMARK   83  A    between atoms: _202  and  _205
REMARK   84  A    between atoms: _205  and  _206
REMARK   85  A    between atoms: _216  and  _218
REMARK   86  A    between atoms: _218  and  _219
REMARK   87  A    between atoms: _221  and  _223
REMARK   88  A    between atoms: _223  and  _224
REMARK   89  A    between atoms: _223  and  _226
REMARK   90  A    between atoms: _226  and  _227
REMARK   91  A    between atoms: _232  and  _233
REMARK   92  A    between atoms: _235  and  _237
REMARK   93  A    between atoms: _237  and  _238
REMARK   94  A    between atoms: _237  and  _240
REMARK   95  A    between atoms: _240  and  _241
REMARK   96  A    between atoms: _241  and  _242
REMARK   97  A    between atoms: _242  and  _243
REMARK   98  A    between atoms: _243  and  _244
REMARK   99  A    between atoms: _248  and  _250
REMARK  100  A    between atoms: _250  and  _251
REMARK  101  A    between atoms: _250  and  _253
REMARK  102  A    between atoms: _253  and  _254
REMARK  103  A    between atoms: _257  and  _259
REMARK  104  A    between atoms: _259  and  _260
REMARK  105  A    between atoms: _259  and  _262
REMARK  106  A    between atoms: _262  and  _263
REMARK  107  A    between atoms: _266  and  _268
REMARK  108  A    between atoms: _268  and  _269
REMARK  109  A    between atoms: _268  and  _271
REMARK  110  A    between atoms: _271  and  _272
REMARK  111  A    between atoms: _272  and  _273
REMARK  112  A    between atoms: _273  and  _274
REMARK  113  A    between atoms: _274  and  _275
REMARK  114  A    between atoms: _279  and  _281
REMARK  115  A    between atoms: _281  and  _282
REMARK  116  A    between atoms: _281  and  _284
REMARK  117  A    between atoms: _284  and  _285
REMARK  118  A    between atoms: _288  and  _290
REMARK  119  A    between atoms: _290  and  _291
REMARK  120  A    between atoms: _290  and  _293
REMARK  121  A    between atoms: _293  and  _294
REMARK  122  A    between atoms: _294  and  _295
REMARK  123  A    between atoms: _300  and  _302
REMARK  124  A    between atoms: _302  and  _303
REMARK  125  A    between atoms: _302  and  _305
REMARK  126  A    between atoms: _305  and  _306
REMARK  127  A    between atoms: _311  and  _312
REMARK  128  A    between atoms: _314  and  _316
REMARK  129  A    between atoms: _316  and  _317
REMARK  130  A    between atoms: _316  and  _319
REMARK  131  A    between atoms: _319  and  _320
REMARK  132  A    between atoms: _323  and  _325
REMARK  133  A    between atoms: _325  and  _326
REMARK  134  A    between atoms: _325  and  _328
REMARK  135  A    between atoms: _330  and  _332
REMARK  136  A    between atoms: _332  and  _333
REMARK  137  A    between atoms: _336  and  _338
REMARK  138  A    between atoms: _338  and  _339
REMARK  139  A    between atoms: _338  and  _341
REMARK  140  A    between atoms: _341  and  _342
REMARK  141  A    between atoms: _345  and  _347
REMARK  142  A    between atoms: _347  and  _348
REMARK  143  A    between atoms: _351  and  _353
REMARK  144  A    between atoms: _353  and  _354
REMARK  145  A    between atoms: _353  and  _356
REMARK  146  A    between atoms: _356  and  _357
REMARK  147  A    between atoms: _357  and  _480
REMARK  148  A    between atoms: _358  and  _360
REMARK  149  A    between atoms: _360  and  _361
REMARK  150  A    between atoms: _360  and  _363
REMARK  151  A    between atoms: _363  and  _364
REMARK  152  A    between atoms: _364  and  _365
REMARK  153  A    between atoms: _365  and  _366
REMARK  154  A    between atoms: _366  and  _367
REMARK  155  A    between atoms: _371  and  _373
REMARK  156  A    between atoms: _373  and  _374
REMARK  157  A    between atoms: _376  and  _378
REMARK  158  A    between atoms: _378  and  _379
REMARK  159  A    between atoms: _378  and  _381
REMARK  160  A    between atoms: _381  and  _382
REMARK  161  A    between atoms: _385  and  _387
REMARK  162  A    between atoms: _387  and  _388
REMARK  163  A    between atoms: _387  and  _390
REMARK  164  A    between atoms: _390  and  _391
REMARK  165  A    between atoms: _393  and  _395
REMARK  166  A    between atoms: _395  and  _396
REMARK  167  A    between atoms: _398  and  _400
REMARK  168  A    between atoms: _400  and  _401
REMARK  169  A    between atoms: _403  and  _405
REMARK  170  A    between atoms: _405  and  _406
REMARK  171  A    between atoms: _405  and  _408
REMARK  172  A    between atoms: _408  and  _409
REMARK  173  A    between atoms: _412  and  _414
REMARK  174  A    between atoms: _414  and  _415
REMARK  175  A    between atoms: _414  and  _417
REMARK  176  A    between atoms: _417  and  _418
REMARK  177  A    between atoms: _421  and  _423
REMARK  178  A    between atoms: _423  and  _424
REMARK  179  A    between atoms: _423  and  _426
REMARK  180  A    between atoms: _426  and  _427
REMARK  181  A    between atoms: _430  and  _432
REMARK  182  A    between atoms: _432  and  _433
REMARK  183  A    between atoms: _432  and  _435
REMARK  184  A    between atoms: _435  and  _436
REMARK  185  A    between atoms: _438  and  _440
REMARK  186  A    between atoms: _440  and  _441
REMARK  187  A    between atoms: _440  and  _443
REMARK  188  A    between atoms: _443  and  _444
REMARK  189  A    between atoms: _454  and  _456
REMARK  190  A    between atoms: _456  and  _457
REMARK  191  A    between atoms: _459  and  _461
REMARK  192  A    between atoms: _461  and  _462
REMARK  193  A    between atoms: _461  and  _464
REMARK  194  A    between atoms: _464  and  _465
REMARK  195  A    between atoms: _465  and  _466
REMARK  196  A    between atoms: _469  and  _471
REMARK  197  A    between atoms: _471  and  _472
REMARK  198  A    between atoms: _474  and  _476
REMARK  199  A    between atoms: _476  and  _477
REMARK  200  A    between atoms: _476  and  _479
REMARK  201  A    between atoms: _479  and  _480
REMARK  202  A    between atoms: _481  and  _483
REMARK  203  A    between atoms: _483  and  _484
REMARK  204  A    between atoms: _487  and  _489
REMARK  205  A    between atoms: _489  and  _490
REMARK  206  A    between atoms: _489  and  _492
REMARK  207  A    between atoms: _492  and  _493
REMARK  208  A    between atoms: _493  and  _494
REMARK  209  A    between atoms: _499  and  _501
REMARK  210  A    between atoms: _501  and  _502
REMARK  211  A    between atoms: _501  and  _504
REMARK  212  A    between atoms: _504  and  _505
REMARK  213  A    between atoms: _505  and  _506
REMARK  214  A    between atoms: _506  and  _507
REMARK  215  A    between atoms: _517  and  _518
REMARK  216  A    between atoms: _523  and  _525
REMARK  217  A    between atoms: _525  and  _526
REMARK  218  A    between atoms: _528  and  _530
REMARK  219  A    between atoms: _530  and  _531
REMARK  220  A    between atoms: _530  and  _533
REMARK  221  A    between atoms: _536  and  _538
REMARK  222  A    between atoms: _538  and  _539
REMARK  223  A    between atoms: _538  and  _541
REMARK  224  A    between atoms: _541  and  _542
REMARK  225  A    between atoms: _547  and  _548
REMARK  226  A    between atoms: _550  and  _552
REMARK  227  A    between atoms: _552  and  _553
REMARK  228  A    between atoms: _552  and  _555
REMARK  229  A    between atoms: _555  and  _556
REMARK                            x       y       z     vdW  Elec       q    Type
REMARK                         _______ _______ _______ _____ _____    ______ ____
ROOT
ATOM      1  O   HOH     1      43.554 -20.986  22.677  0.00  0.00    +0.000 OA
ENDROOT
TORSDOF 0
REMARK  Name = ../refined-set-2016/4x6n/4x6n_pocket.pdb
REMARK  229 active torsions:
REMARK  status: ('A' for Active; 'I' for Inactive)
REMARK    1  A    between atoms: _1  and  _5
REMARK    2  A    between atoms: _5  and  _6
REMARK    3  A    between atoms: _5  and  _8
REMARK    4  A    between atoms: _8  and  _9
REMARK    5  A    between atoms: _12  and  _14
REMARK    6  A    between atoms: _14  and  _15
REMARK    7  A    between atoms: _14  and  _17
REMARK    8  A    between atoms: _20  and  _22
REMARK    9  A    between atoms: _22  and  _23
REMARK   10  A    between atoms: _22  and  _25
REMARK   11  A    between atoms: _25  and  _26
REMARK   12  A    between atoms: _29  and  _31
REMARK   13  A    between atoms: _31  and  _32
REMARK   14  A    between atoms: _31  and  _34
REMARK   15  A    between atoms: _34  and  _35
REMARK   16  A    between atoms: _38  and  _40
REMARK   17  A    between atoms: _40  and  _41
REMARK   18  A    between atoms: _40  and  _43
REMARK   19  A    between atoms: _43  and  _44
REMARK   20  A    between atoms: _47  and  _49
REMARK   21  A    between atoms: _49  and  _50
REMARK   22  A    between atoms: _49  and  _52
REMARK   23  A    between atoms: _52  and  _53
REMARK   24  A    between atoms: _53  and  _54
REMARK   25  A    between atoms: _59  and  _61
REMARK   26  A    between atoms: _61  and  _62
REMARK   27  A    between atoms: _61  and  _64
REMARK   28  A    between atoms: _64  and  _65
REMARK   29  A    between atoms: _65  and  _66
REMARK   30  A    between atoms: _66  and  _67
REMARK   31  A    between atoms: _76  and  _78
REMARK   32  A    between atoms: _78  and  _79
REMARK   33  A    between atoms: _78  and  _81
REMARK   34  A    between atoms: _81  and  _82
REMARK   35  A    between atoms: _87  and  _89
REMARK   36  A    between atoms: _89  and  _90
REMARK   37  A    between atoms: _89  and  _92
REMARK   38  A    between atoms: _92  and  _93
REMARK   39  A    between atoms: _96  and  _98
REMARK   40  A    between atoms: _98  and  _99
REMARK   41  A    between atoms: _98  and  _101
REMARK   42  A    between atoms: _101  and  _102
REMARK   43  A    between atoms: _102  and  _137
REMARK   44  A    between atoms: _103  and  _105
REMARK   45  A    between atoms: _105  and  _106
REMARK   46  A    between atoms: _108  and  _110
REMARK   47  A    between atoms: _110  and  _111
REMARK   48  A    between atoms: _114  and  _116
REMARK   49  A    between atoms: _116  and  _117
REMARK   50  A    between atoms: _120  and  _122
REMARK   51  A    between atoms: _122  and  _123
REMARK   52  A    between atoms: _122  and  _125
REMARK   53  A    between atoms: _125  and  _126
REMARK   54  A    between atoms: _131  and  _133
REMARK   55  A    between atoms: _133  and  _134
REMARK   56  A    between atoms: _133  and  _136
REMARK   57  A    between atoms: _136  and  _137
REMARK   58  A    between atoms: _138  and  _140
REMARK   59  A    between atoms: _140  and  _141
REMARK   60  A    between atoms: _140  and  _143
REMARK   61  A    between atoms: _143  and  _144
REMARK   62  A    between atoms: _150  and  _152
REMARK   63  A    between atoms: _152  and  _153
REMARK   64  A    between atoms: _152  and  _155
REMARK   65  A    between atoms: _155  and  _156
REMARK   66  A    between atoms: _161  and  _162
REMARK   67  A    between atoms: _164  and  _166
REMARK   68  A    between atoms: _166  and  _167
REMARK   69  A    between atoms: _169  and  _171
REMARK   70  A    between atoms: _171  and  _172
REMARK   71  A    between atoms: _171  and  _174
REMARK   72  A    between atoms: _177  and  _179
REMARK   73  A    between atoms: _179  and  _180
REMARK   74  A    between atoms: _183  and  _185
REMARK   75  A    between atoms: _185  and  _186
REMARK   76  A    between atoms: _185  and  _188
REMARK   77  A    between atoms: _188  and  _189
REMARK   78  A    between atoms: _192  and  _194
REMARK   79  A    between atoms: _194  and  _195
REMARK   80  A    between atoms: _194  and  _197
REMARK   81  A    between atoms: _200  and  _202
REMARK   82  A    between atoms: _202  and  _203
REMARK   83  A    between atoms: _202  and  _205
REMARK   84  A    between atoms: _205  and  _206
REMARK   85  A    between atoms: _216  and  _218
REMARK   86  A    between atoms: _218  and  _219
REMARK   87  A    between atoms: _221  and  _223
REMARK   88  A    between atoms: _223  and  _224
REMARK   89  A    between atoms: _223  and  _226
REMARK   90  A    between atoms: _226  and  _227
REMARK   91  A    between atoms: _232  and  _233
REMARK   92  A    between atoms: _235  and  _237
REMARK   93  A    between atoms: _237  and  _238
REMARK   94  A    between atoms: _237  and  _240
REMARK   95  A    between atoms: _240  and  _241
REMARK   96  A    between atoms: _241  and  _242
REMARK   97  A    between atoms: _242  and  _243
REMARK   98  A    between atoms: _243  and  _244
REMARK   99  A    between atoms: _248  and  _250
REMARK  100  A    between atoms: _250  and  _251
REMARK  101  A    between atoms: _250  and  _253
REMARK  102  A    between atoms: _253  and  _254
REMARK  103  A    between atoms: _257  and  _259
REMARK  104  A    between atoms: _259  and  _260
REMARK  105  A    between atoms: _259  and  _262
REMARK  106  A    between atoms: _262  and  _263
REMARK  107  A    between atoms: _266  and  _268
REMARK  108  A    between atoms: _268  and  _269
REMARK  109  A    between atoms: _268  and  _271
REMARK  110  A    between atoms: _271  and  _272
REMARK  111  A    between atoms: _272  and  _273
REMARK  112  A    between atoms: _273  and  _274
REMARK  113  A    between atoms: _274  and  _275
REMARK  114  A    between atoms: _279  and  _281
REMARK  115  A    between atoms: _281  and  _282
REMARK  116  A    between atoms: _281  and  _284
REMARK  117  A    between atoms: _284  and  _285
REMARK  118  A    between atoms: _288  and  _290
REMARK  119  A    between atoms: _290  and  _291
REMARK  120  A    between atoms: _290  and  _293
REMARK  121  A    between atoms: _293  and  _294
REMARK  122  A    between atoms: _294  and  _295
REMARK  123  A    between atoms: _300  and  _302
REMARK  124  A    between atoms: _302  and  _303
REMARK  125  A    between atoms: _302  and  _305
REMARK  126  A    between atoms: _305  and  _306
REMARK  127  A    between atoms: _311  and  _312
REMARK  128  A    between atoms: _314  and  _316
REMARK  129  A    between atoms: _316  and  _317
REMARK  130  A    between atoms: _316  and  _319
REMARK  131  A    between atoms: _319  and  _320
REMARK  132  A    between atoms: _323  and  _325
REMARK  133  A    between atoms: _325  and  _326
REMARK  134  A    between atoms: _325  and  _328
REMARK  135  A    between atoms: _330  and  _332
REMARK  136  A    between atoms: _332  and  _333
REMARK  137  A    between atoms: _336  and  _338
REMARK  138  A    between atoms: _338  and  _339
REMARK  139  A    between atoms: _338  and  _341
REMARK  140  A    between atoms: _341  and  _342
REMARK  141  A    between atoms: _345  and  _347
REMARK  142  A    between atoms: _347  and  _348
REMARK  143  A    between atoms: _351  and  _353
REMARK  144  A    between atoms: _353  and  _354
REMARK  145  A    between atoms: _353  and  _356
REMARK  146  A    between atoms: _356  and  _357
REMARK  147  A    between atoms: _357  and  _480
REMARK  148  A    between atoms: _358  and  _360
REMARK  149  A    between atoms: _360  and  _361
REMARK  150  A    between atoms: _360  and  _363
REMARK  151  A    between atoms: _363  and  _364
REMARK  152  A    between atoms: _364  and  _365
REMARK  153  A    between atoms: _365  and  _366
REMARK  154  A    between atoms: _366  and  _367
REMARK  155  A    between atoms: _371  and  _373
REMARK  156  A    between atoms: _373  and  _374
REMARK  157  A    between atoms: _376  and  _378
REMARK  158  A    between atoms: _378  and  _379
REMARK  159  A    between atoms: _378  and  _381
REMARK  160  A    between atoms: _381  and  _382
REMARK  161  A    between atoms: _385  and  _387
REMARK  162  A    between atoms: _387  and  _388
REMARK  163  A    between atoms: _387  and  _390
REMARK  164  A    between atoms: _390  and  _391
REMARK  165  A    between atoms: _393  and  _395
REMARK  166  A    between atoms: _395  and  _396
REMARK  167  A    between atoms: _398  and  _400
REMARK  168  A    between atoms: _400  and  _401
REMARK  169  A    between atoms: _403  and  _405
REMARK  170  A    between atoms: _405  and  _406
REMARK  171  A    between atoms: _405  and  _408
REMARK  172  A    between atoms: _408  and  _409
REMARK  173  A    between atoms: _412  and  _414
REMARK  174  A    between atoms: _414  and  _415
REMARK  175  A    between atoms: _414  and  _417
REMARK  176  A    between atoms: _417  and  _418
REMARK  177  A    between atoms: _421  and  _423
REMARK  178  A    between atoms: _423  and  _424
REMARK  179  A    between atoms: _423  and  _426
REMARK  180  A    between atoms: _426  and  _427
REMARK  181  A    between atoms: _430  and  _432
REMARK  182  A    between atoms: _432  and  _433
REMARK  183  A    between atoms: _432  and  _435
REMARK  184  A    between atoms: _435  and  _436
REMARK  185  A    between atoms: _438  and  _440
REMARK  186  A    between atoms: _440  and  _441
REMARK  187  A    between atoms: _440  and  _443
REMARK  188  A    between atoms: _443  and  _444
REMARK  189  A    between atoms: _454  and  _456
REMARK  190  A    between atoms: _456  and  _457
REMARK  191  A    between atoms: _459  and  _461
REMARK  192  A    between atoms: _461  and  _462
REMARK  193  A    between atoms: _461  and  _464
REMARK  194  A    between atoms: _464  and  _465
REMARK  195  A    between atoms: _465  and  _466
REMARK  196  A    between atoms: _469  and  _471
REMARK  197  A    between atoms: _471  and  _472
REMARK  198  A    between atoms: _474  and  _476
REMARK  199  A    between atoms: _476  and  _477
REMARK  200  A    between atoms: _476  and  _479
REMARK  201  A    between atoms: _479  and  _480
REMARK  202  A    between atoms: _481  and  _483
REMARK  203  A    between atoms: _483  and  _484
REMARK  204  A    between atoms: _487  and  _489
REMARK  205  A    between atoms: _489  and  _490
REMARK  206  A    between atoms: _489  and  _492
REMARK  207  A    between atoms: _492  and  _493
REMARK  208  A    between atoms: _493  and  _494
REMARK  209  A    between atoms: _499  and  _501
REMARK  210  A    between atoms: _501  and  _502
REMARK  211  A    between atoms: _501  and  _504
REMARK  212  A    between atoms: _504  and  _505
REMARK  213  A    between atoms: _505  and  _506
REMARK  214  A    between atoms: _506  and  _507
REMARK  215  A    between atoms: _517  and  _518
REMARK  216  A    between atoms: _523  and  _525
REMARK  217  A    between atoms: _525  and  _526
REMARK  218  A    between atoms: _528  and  _530
REMARK  219  A    between atoms: _530  and  _531
REMARK  220  A    between atoms: _530  and  _533
REMARK  221  A    between atoms: _536  and  _538
REMARK  222  A    between atoms: _538  and  _539
REMARK  223  A    between atoms: _538  and  _541
REMARK  224  A    between atoms: _541  and  _542
REMARK  225  A    between atoms: _547  and  _548
REMARK  226  A    between atoms: _550  and  _552
REMARK  227  A    between atoms: _552  and  _553
REMARK  228  A    between atoms: _552  and  _555
REMARK  229  A    between atoms: _555  and  _556
REMARK                            x       y       z     vdW  Elec       q    Type
REMARK                         _______ _______ _______ _____ _____    ______ ____
ROOT
ATOM      1  O   HOH     1      39.021 -20.224  20.706  0.00  0.00    +0.000 OA
ENDROOT
TORSDOF 0
REMARK  Name = ../refined-set-2016/4x6n/4x6n_pocket.pdb
REMARK  229 active torsions:
REMARK  status: ('A' for Active; 'I' for Inactive)
REMARK    1  A    between atoms: _1  and  _5
REMARK    2  A    between atoms: _5  and  _6
REMARK    3  A    between atoms: _5  and  _8
REMARK    4  A    between atoms: _8  and  _9
REMARK    5  A    between atoms: _12  and  _14
REMARK    6  A    between atoms: _14  and  _15
REMARK    7  A    between atoms: _14  and  _17
REMARK    8  A    between atoms: _20  and  _22
REMARK    9  A    between atoms: _22  and  _23
REMARK   10  A    between atoms: _22  and  _25
REMARK   11  A    between atoms: _25  and  _26
REMARK   12  A    between atoms: _29  and  _31
REMARK   13  A    between atoms: _31  and  _32
REMARK   14  A    between atoms: _31  and  _34
REMARK   15  A    between atoms: _34  and  _35
REMARK   16  A    between atoms: _38  and  _40
REMARK   17  A    between atoms: _40  and  _41
REMARK   18  A    between atoms: _40  and  _43
REMARK   19  A    between atoms: _43  and  _44
REMARK   20  A    between atoms: _47  and  _49
REMARK   21  A    between atoms: _49  and  _50
REMARK   22  A    between atoms: _49  and  _52
REMARK   23  A    between atoms: _52  and  _53
REMARK   24  A    between atoms: _53  and  _54
REMARK   25  A    between atoms: _59  and  _61
REMARK   26  A    between atoms: _61  and  _62
REMARK   27  A    between atoms: _61  and  _64
REMARK   28  A    between atoms: _64  and  _65
REMARK   29  A    between atoms: _65  and  _66
REMARK   30  A    between atoms: _66  and  _67
REMARK   31  A    between atoms: _76  and  _78
REMARK   32  A    between atoms: _78  and  _79
REMARK   33  A    between atoms: _78  and  _81
REMARK   34  A    between atoms: _81  and  _82
REMARK   35  A    between atoms: _87  and  _89
REMARK   36  A    between atoms: _89  and  _90
REMARK   37  A    between atoms: _89  and  _92
REMARK   38  A    between atoms: _92  and  _93
REMARK   39  A    between atoms: _96  and  _98
REMARK   40  A    between atoms: _98  and  _99
REMARK   41  A    between atoms: _98  and  _101
REMARK   42  A    between atoms: _101  and  _102
REMARK   43  A    between atoms: _102  and  _137
REMARK   44  A    between atoms: _103  and  _105
REMARK   45  A    between atoms: _105  and  _106
REMARK   46  A    between atoms: _108  and  _110
REMARK   47  A    between atoms: _110  and  _111
REMARK   48  A    between atoms: _114  and  _116
REMARK   49  A    between atoms: _116  and  _117
REMARK   50  A    between atoms: _120  and  _122
REMARK   51  A    between atoms: _122  and  _123
REMARK   52  A    between atoms: _122  and  _125
REMARK   53  A    between atoms: _125  and  _126
REMARK   54  A    between atoms: _131  and  _133
REMARK   55  A    between atoms: _133  and  _134
REMARK   56  A    between atoms: _133  and  _136
REMARK   57  A    between atoms: _136  and  _137
REMARK   58  A    between atoms: _138  and  _140
REMARK   59  A    between atoms: _140  and  _141
REMARK   60  A    between atoms: _140  and  _143
REMARK   61  A    between atoms: _143  and  _144
REMARK   62  A    between atoms: _150  and  _152
REMARK   63  A    between atoms: _152  and  _153
REMARK   64  A    between atoms: _152  and  _155
REMARK   65  A    between atoms: _155  and  _156
REMARK   66  A    between atoms: _161  and  _162
REMARK   67  A    between atoms: _164  and  _166
REMARK   68  A    between atoms: _166  and  _167
REMARK   69  A    between atoms: _169  and  _171
REMARK   70  A    between atoms: _171  and  _172
REMARK   71  A    between atoms: _171  and  _174
REMARK   72  A    between atoms: _177  and  _179
REMARK   73  A    between atoms: _179  and  _180
REMARK   74  A    between atoms: _183  and  _185
REMARK   75  A    between atoms: _185  and  _186
REMARK   76  A    between atoms: _185  and  _188
REMARK   77  A    between atoms: _188  and  _189
REMARK   78  A    between atoms: _192  and  _194
REMARK   79  A    between atoms: _194  and  _195
REMARK   80  A    between atoms: _194  and  _197
REMARK   81  A    between atoms: _200  and  _202
REMARK   82  A    between atoms: _202  and  _203
REMARK   83  A    between atoms: _202  and  _205
REMARK   84  A    between atoms: _205  and  _206
REMARK   85  A    between atoms: _216  and  _218
REMARK   86  A    between atoms: _218  and  _219
REMARK   87  A    between atoms: _221  and  _223
REMARK   88  A    between atoms: _223  and  _224
REMARK   89  A    between atoms: _223  and  _226
REMARK   90  A    between atoms: _226  and  _227
REMARK   91  A    between atoms: _232  and  _233
REMARK   92  A    between atoms: _235  and  _237
REMARK   93  A    between atoms: _237  and  _238
REMARK   94  A    between atoms: _237  and  _240
REMARK   95  A    between atoms: _240  and  _241
REMARK   96  A    between atoms: _241  and  _242
REMARK   97  A    between atoms: _242  and  _243
REMARK   98  A    between atoms: _243  and  _244
REMARK   99  A    between atoms: _248  and  _250
REMARK  100  A    between atoms: _250  and  _251
REMARK  101  A    between atoms: _250  and  _253
REMARK  102  A    between atoms: _253  and  _254
REMARK  103  A    between atoms: _257  and  _259
REMARK  104  A    between atoms: _259  and  _260
REMARK  105  A    between atoms: _259  and  _262
REMARK  106  A    between atoms: _262  and  _263
REMARK  107  A    between atoms: _266  and  _268
REMARK  108  A    between atoms: _268  and  _269
REMARK  109  A    between atoms: _268  and  _271
REMARK  110  A    between atoms: _271  and  _272
REMARK  111  A    between atoms: _272  and  _273
REMARK  112  A    between atoms: _273  and  _274
REMARK  113  A    between atoms: _274  and  _275
REMARK  114  A    between atoms: _279  and  _281
REMARK  115  A    between atoms: _281  and  _282
REMARK  116  A    between atoms: _281  and  _284
REMARK  117  A    between atoms: _284  and  _285
REMARK  118  A    between atoms: _288  and  _290
REMARK  119  A    between atoms: _290  and  _291
REMARK  120  A    between atoms: _290  and  _293
REMARK  121  A    between atoms: _293  and  _294
REMARK  122  A    between atoms: _294  and  _295
REMARK  123  A    between atoms: _300  and  _302
REMARK  124  A    between atoms: _302  and  _303
REMARK  125  A    between atoms: _302  and  _305
REMARK  126  A    between atoms: _305  and  _306
REMARK  127  A    between atoms: _311  and  _312
REMARK  128  A    between atoms: _314  and  _316
REMARK  129  A    between atoms: _316  and  _317
REMARK  130  A    between atoms: _316  and  _319
REMARK  131  A    between atoms: _319  and  _320
REMARK  132  A    between atoms: _323  and  _325
REMARK  133  A    between atoms: _325  and  _326
REMARK  134  A    between atoms: _325  and  _328
REMARK  135  A    between atoms: _330  and  _332
REMARK  136  A    between atoms: _332  and  _333
REMARK  137  A    between atoms: _336  and  _338
REMARK  138  A    between atoms: _338  and  _339
REMARK  139  A    between atoms: _338  and  _341
REMARK  140  A    between atoms: _341  and  _342
REMARK  141  A    between atoms: _345  and  _347
REMARK  142  A    between atoms: _347  and  _348
REMARK  143  A    between atoms: _351  and  _353
REMARK  144  A    between atoms: _353  and  _354
REMARK  145  A    between atoms: _353  and  _356
REMARK  146  A    between atoms: _356  and  _357
REMARK  147  A    between atoms: _357  and  _480
REMARK  148  A    between atoms: _358  and  _360
REMARK  149  A    between atoms: _360  and  _361
REMARK  150  A    between atoms: _360  and  _363
REMARK  151  A    between atoms: _363  and  _364
REMARK  152  A    between atoms: _364  and  _365
REMARK  153  A    between atoms: _365  and  _366
REMARK  154  A    between atoms: _366  and  _367
REMARK  155  A    between atoms: _371  and  _373
REMARK  156  A    between atoms: _373  and  _374
REMARK  157  A    between atoms: _376  and  _378
REMARK  158  A    between atoms: _378  and  _379
REMARK  159  A    between atoms: _378  and  _381
REMARK  160  A    between atoms: _381  and  _382
REMARK  161  A    between atoms: _385  and  _387
REMARK  162  A    between atoms: _387  and  _388
REMARK  163  A    between atoms: _387  and  _390
REMARK  164  A    between atoms: _390  and  _391
REMARK  165  A    between atoms: _393  and  _395
REMARK  166  A    between atoms: _395  and  _396
REMARK  167  A    between atoms: _398  and  _400
REMARK  168  A    between atoms: _400  and  _401
REMARK  169  A    between atoms: _403  and  _405
REMARK  170  A    between atoms: _405  and  _406
REMARK  171  A    between atoms: _405  and  _408
REMARK  172  A    between atoms: _408  and  _409
REMARK  173  A    between atoms: _412  and  _414
REMARK  174  A    between atoms: _414  and  _415
REMARK  175  A    between atoms: _414  and  _417
REMARK  176  A    between atoms: _417  and  _418
REMARK  177  A    between atoms: _421  and  _423
REMARK  178  A    between atoms: _423  and  _424
REMARK  179  A    between atoms: _423  and  _426
REMARK  180  A    between atoms: _426  and  _427
REMARK  181  A    between atoms: _430  and  _432
REMARK  182  A    between atoms: _432  and  _433
REMARK  183  A    between atoms: _432  and  _435
REMARK  184  A    between atoms: _435  and  _436
REMARK  185  A    between atoms: _438  and  _440
REMARK  186  A    between atoms: _440  and  _441
REMARK  187  A    between atoms: _440  and  _443
REMARK  188  A    between atoms: _443  and  _444
REMARK  189  A    between atoms: _454  and  _456
REMARK  190  A    between atoms: _456  and  _457
REMARK  191  A    between atoms: _459  and  _461
REMARK  192  A    between atoms: _461  and  _462
REMARK  193  A    between atoms: _461  and  _464
REMARK  194  A    between atoms: _464  and  _465
REMARK  195  A    between atoms: _465  and  _466
REMARK  196  A    between atoms: _469  and  _471
REMARK  197  A    between atoms: _471  and  _472
REMARK  198  A    between atoms: _474  and  _476
REMARK  199  A    between atoms: _476  and  _477
REMARK  200  A    between atoms: _476  and  _479
REMARK  201  A    between atoms: _479  and  _480
REMARK  202  A    between atoms: _481  and  _483
REMARK  203  A    between atoms: _483  and  _484
REMARK  204  A    between atoms: _487  and  _489
REMARK  205  A    between atoms: _489  and  _490
REMARK  206  A    between atoms: _489  and  _492
REMARK  207  A    between atoms: _492  and  _493
REMARK  208  A    between atoms: _493  and  _494
REMARK  209  A    between atoms: _499  and  _501
REMARK  210  A    between atoms: _501  and  _502
REMARK  211  A    between atoms: _501  and  _504
REMARK  212  A    between atoms: _504  and  _505
REMARK  213  A    between atoms: _505  and  _506
REMARK  214  A    between atoms: _506  and  _507
REMARK  215  A    between atoms: _517  and  _518
REMARK  216  A    between atoms: _523  and  _525
REMARK  217  A    between atoms: _525  and  _526
REMARK  218  A    between atoms: _528  and  _530
REMARK  219  A    between atoms: _530  and  _531
REMARK  220  A    between atoms: _530  and  _533
REMARK  221  A    between atoms: _536  and  _538
REMARK  222  A    between atoms: _538  and  _539
REMARK  223  A    between atoms: _538  and  _541
REMARK  224  A    between atoms: _541  and  _542
REMARK  225  A    between atoms: _547  and  _548
REMARK  226  A    between atoms: _550  and  _552
REMARK  227  A    between atoms: _552  and  _553
REMARK  228  A    between atoms: _552  and  _555
REMARK  229  A    between atoms: _555  and  _556
REMARK                            x       y       z     vdW  Elec       q    Type
REMARK                         _______ _______ _______ _____ _____    ______ ____
ROOT
ATOM      1  O   HOH     1      42.254 -28.539  27.486  0.00  0.00    +0.000 OA
ENDROOT
TORSDOF 0
REMARK  Name = ../refined-set-2016/4x6n/4x6n_pocket.pdb
REMARK  229 active torsions:
REMARK  status: ('A' for Active; 'I' for Inactive)
REMARK    1  A    between atoms: _1  and  _5
REMARK    2  A    between atoms: _5  and  _6
REMARK    3  A    between atoms: _5  and  _8
REMARK    4  A    between atoms: _8  and  _9
REMARK    5  A    between atoms: _12  and  _14
REMARK    6  A    between atoms: _14  and  _15
REMARK    7  A    between atoms: _14  and  _17
REMARK    8  A    between atoms: _20  and  _22
REMARK    9  A    between atoms: _22  and  _23
REMARK   10  A    between atoms: _22  and  _25
REMARK   11  A    between atoms: _25  and  _26
REMARK   12  A    between atoms: _29  and  _31
REMARK   13  A    between atoms: _31  and  _32
REMARK   14  A    between atoms: _31  and  _34
REMARK   15  A    between atoms: _34  and  _35
REMARK   16  A    between atoms: _38  and  _40
REMARK   17  A    between atoms: _40  and  _41
REMARK   18  A    between atoms: _40  and  _43
REMARK   19  A    between atoms: _43  and  _44
REMARK   20  A    between atoms: _47  and  _49
REMARK   21  A    between atoms: _49  and  _50
REMARK   22  A    between atoms: _49  and  _52
REMARK   23  A    between atoms: _52  and  _53
REMARK   24  A    between atoms: _53  and  _54
REMARK   25  A    between atoms: _59  and  _61
REMARK   26  A    between atoms: _61  and  _62
REMARK   27  A    between atoms: _61  and  _64
REMARK   28  A    between atoms: _64  and  _65
REMARK   29  A    between atoms: _65  and  _66
REMARK   30  A    between atoms: _66  and  _67
REMARK   31  A    between atoms: _76  and  _78
REMARK   32  A    between atoms: _78  and  _79
REMARK   33  A    between atoms: _78  and  _81
REMARK   34  A    between atoms: _81  and  _82
REMARK   35  A    between atoms: _87  and  _89
REMARK   36  A    between atoms: _89  and  _90
REMARK   37  A    between atoms: _89  and  _92
REMARK   38  A    between atoms: _92  and  _93
REMARK   39  A    between atoms: _96  and  _98
REMARK   40  A    between atoms: _98  and  _99
REMARK   41  A    between atoms: _98  and  _101
REMARK   42  A    between atoms: _101  and  _102
REMARK   43  A    between atoms: _102  and  _137
REMARK   44  A    between atoms: _103  and  _105
REMARK   45  A    between atoms: _105  and  _106
REMARK   46  A    between atoms: _108  and  _110
REMARK   47  A    between atoms: _110  and  _111
REMARK   48  A    between atoms: _114  and  _116
REMARK   49  A    between atoms: _116  and  _117
REMARK   50  A    between atoms: _120  and  _122
REMARK   51  A    between atoms: _122  and  _123
REMARK   52  A    between atoms: _122  and  _125
REMARK   53  A    between atoms: _125  and  _126
REMARK   54  A    between atoms: _131  and  _133
REMARK   55  A    between atoms: _133  and  _134
REMARK   56  A    between atoms: _133  and  _136
REMARK   57  A    between atoms: _136  and  _137
REMARK   58  A    between atoms: _138  and  _140
REMARK   59  A    between atoms: _140  and  _141
REMARK   60  A    between atoms: _140  and  _143
REMARK   61  A    between atoms: _143  and  _144
REMARK   62  A    between atoms: _150  and  _152
REMARK   63  A    between atoms: _152  and  _153
REMARK   64  A    between atoms: _152  and  _155
REMARK   65  A    between atoms: _155  and  _156
REMARK   66  A    between atoms: _161  and  _162
REMARK   67  A    between atoms: _164  and  _166
REMARK   68  A    between atoms: _166  and  _167
REMARK   69  A    between atoms: _169  and  _171
REMARK   70  A    between atoms: _171  and  _172
REMARK   71  A    between atoms: _171  and  _174
REMARK   72  A    between atoms: _177  and  _179
REMARK   73  A    between atoms: _179  and  _180
REMARK   74  A    between atoms: _183  and  _185
REMARK   75  A    between atoms: _185  and  _186
REMARK   76  A    between atoms: _185  and  _188
REMARK   77  A    between atoms: _188  and  _189
REMARK   78  A    between atoms: _192  and  _194
REMARK   79  A    between atoms: _194  and  _195
REMARK   80  A    between atoms: _194  and  _197
REMARK   81  A    between atoms: _200  and  _202
REMARK   82  A    between atoms: _202  and  _203
REMARK   83  A    between atoms: _202  and  _205
REMARK   84  A    between atoms: _205  and  _206
REMARK   85  A    between atoms: _216  and  _218
REMARK   86  A    between atoms: _218  and  _219
REMARK   87  A    between atoms: _221  and  _223
REMARK   88  A    between atoms: _223  and  _224
REMARK   89  A    between atoms: _223  and  _226
REMARK   90  A    between atoms: _226  and  _227
REMARK   91  A    between atoms: _232  and  _233
REMARK   92  A    between atoms: _235  and  _237
REMARK   93  A    between atoms: _237  and  _238
REMARK   94  A    between atoms: _237  and  _240
REMARK   95  A    between atoms: _240  and  _241
REMARK   96  A    between atoms: _241  and  _242
REMARK   97  A    between atoms: _242  and  _243
REMARK   98  A    between atoms: _243  and  _244
REMARK   99  A    between atoms: _248  and  _250
REMARK  100  A    between atoms: _250  and  _251
REMARK  101  A    between atoms: _250  and  _253
REMARK  102  A    between atoms: _253  and  _254
REMARK  103  A    between atoms: _257  and  _259
REMARK  104  A    between atoms: _259  and  _260
REMARK  105  A    between atoms: _259  and  _262
REMARK  106  A    between atoms: _262  and  _263
REMARK  107  A    between atoms: _266  and  _268
REMARK  108  A    between atoms: _268  and  _269
REMARK  109  A    between atoms: _268  and  _271
REMARK  110  A    between atoms: _271  and  _272
REMARK  111  A    between atoms: _272  and  _273
REMARK  112  A    between atoms: _273  and  _274
REMARK  113  A    between atoms: _274  and  _275
REMARK  114  A    between atoms: _279  and  _281
REMARK  115  A    between atoms: _281  and  _282
REMARK  116  A    between atoms: _281  and  _284
REMARK  117  A    between atoms: _284  and  _285
REMARK  118  A    between atoms: _288  and  _290
REMARK  119  A    between atoms: _290  and  _291
REMARK  120  A    between atoms: _290  and  _293
REMARK  121  A    between atoms: _293  and  _294
REMARK  122  A    between atoms: _294  and  _295
REMARK  123  A    between atoms: _300  and  _302
REMARK  124  A    between atoms: _302  and  _303
REMARK  125  A    between atoms: _302  and  _305
REMARK  126  A    between atoms: _305  and  _306
REMARK  127  A    between atoms: _311  and  _312
REMARK  128  A    between atoms: _314  and  _316
REMARK  129  A    between atoms: _316  and  _317
REMARK  130  A    between atoms: _316  and  _319
REMARK  131  A    between atoms: _319  and  _320
REMARK  132  A    between atoms: _323  and  _325
REMARK  133  A    between atoms: _325  and  _326
REMARK  134  A    between atoms: _325  and  _328
REMARK  135  A    between atoms: _330  and  _332
REMARK  136  A    between atoms: _332  and  _333
REMARK  137  A    between atoms: _336  and  _338
REMARK  138  A    between atoms: _338  and  _339
REMARK  139  A    between atoms: _338  and  _341
REMARK  140  A    between atoms: _341  and  _342
REMARK  141  A    between atoms: _345  and  _347
REMARK  142  A    between atoms: _347  and  _348
REMARK  143  A    between atoms: _351  and  _353
REMARK  144  A    between atoms: _353  and  _354
REMARK  145  A    between atoms: _353  and  _356
REMARK  146  A    between atoms: _356  and  _357
REMARK  147  A    between atoms: _357  and  _480
REMARK  148  A    between atoms: _358  and  _360
REMARK  149  A    between atoms: _360  and  _361
REMARK  150  A    between atoms: _360  and  _363
REMARK  151  A    between atoms: _363  and  _364
REMARK  152  A    between atoms: _364  and  _365
REMARK  153  A    between atoms: _365  and  _366
REMARK  154  A    between atoms: _366  and  _367
REMARK  155  A    between atoms: _371  and  _373
REMARK  156  A    between atoms: _373  and  _374
REMARK  157  A    between atoms: _376  and  _378
REMARK  158  A    between atoms: _378  and  _379
REMARK  159  A    between atoms: _378  and  _381
REMARK  160  A    between atoms: _381  and  _382
REMARK  161  A    between atoms: _385  and  _387
REMARK  162  A    between atoms: _387  and  _388
REMARK  163  A    between atoms: _387  and  _390
REMARK  164  A    between atoms: _390  and  _391
REMARK  165  A    between atoms: _393  and  _395
REMARK  166  A    between atoms: _395  and  _396
REMARK  167  A    between atoms: _398  and  _400
REMARK  168  A    between atoms: _400  and  _401
REMARK  169  A    between atoms: _403  and  _405
REMARK  170  A    between atoms: _405  and  _406
REMARK  171  A    between atoms: _405  and  _408
REMARK  172  A    between atoms: _408  and  _409
REMARK  173  A    between atoms: _412  and  _414
REMARK  174  A    between atoms: _414  and  _415
REMARK  175  A    between atoms: _414  and  _417
REMARK  176  A    between atoms: _417  and  _418
REMARK  177  A    between atoms: _421  and  _423
REMARK  178  A    between atoms: _423  and  _424
REMARK  179  A    between atoms: _423  and  _426
REMARK  180  A    between atoms: _426  and  _427
REMARK  181  A    between atoms: _430  and  _432
REMARK  182  A    between atoms: _432  and  _433
REMARK  183  A    between atoms: _432  and  _435
REMARK  184  A    between atoms: _435  and  _436
REMARK  185  A    between atoms: _438  and  _440
REMARK  186  A    between atoms: _440  and  _441
REMARK  187  A    between atoms: _440  and  _443
REMARK  188  A    between atoms: _443  and  _444
REMARK  189  A    between atoms: _454  and  _456
REMARK  190  A    between atoms: _456  and  _457
REMARK  191  A    between atoms: _459  and  _461
REMARK  192  A    between atoms: _461  and  _462
REMARK  193  A    between atoms: _461  and  _464
REMARK  194  A    between atoms: _464  and  _465
REMARK  195  A    between atoms: _465  and  _466
REMARK  196  A    between atoms: _469  and  _471
REMARK  197  A    between atoms: _471  and  _472
REMARK  198  A    between atoms: _474  and  _476
REMARK  199  A    between atoms: _476  and  _477
REMARK  200  A    between atoms: _476  and  _479
REMARK  201  A    between atoms: _479  and  _480
REMARK  202  A    between atoms: _481  and  _483
REMARK  203  A    between atoms: _483  and  _484
REMARK  204  A    between atoms: _487  and  _489
REMARK  205  A    between atoms: _489  and  _490
REMARK  206  A    between atoms: _489  and  _492
REMARK  207  A    between atoms: _492  and  _493
REMARK  208  A    between atoms: _493  and  _494
REMARK  209  A    between atoms: _499  and  _501
REMARK  210  A    between atoms: _501  and  _502
REMARK  211  A    between atoms: _501  and  _504
REMARK  212  A    between atoms: _504  and  _505
REMARK  213  A    between atoms: _505  and  _506
REMARK  214  A    between atoms: _506  and  _507
REMARK  215  A    between atoms: _517  and  _518
REMARK  216  A    between atoms: _523  and  _525
REMARK  217  A    between atoms: _525  and  _526
REMARK  218  A    between atoms: _528  and  _530
REMARK  219  A    between atoms: _530  and  _531
REMARK  220  A    between atoms: _530  and  _533
REMARK  221  A    between atoms: _536  and  _538
REMARK  222  A    between atoms: _538  and  _539
REMARK  223  A    between atoms: _538  and  _541
REMARK  224  A    between atoms: _541  and  _542
REMARK  225  A    between atoms: _547  and  _548
REMARK  226  A    between atoms: _550  and  _552
REMARK  227  A    between atoms: _552  and  _553
REMARK  228  A    between atoms: _552  and  _555
REMARK  229  A    between atoms: _555  and  _556
REMARK                            x       y       z     vdW  Elec       q    Type
REMARK                         _______ _______ _______ _____ _____    ______ ____
ROOT
ATOM      1  O   HOH     1      35.565 -15.492  36.787  0.00  0.00    +0.000 OA
ENDROOT
TORSDOF 0
REMARK  Name = ../refined-set-2016/4x6n/4x6n_pocket.pdb
REMARK  229 active torsions:
REMARK  status: ('A' for Active; 'I' for Inactive)
REMARK    1  A    between atoms: _1  and  _5
REMARK    2  A    between atoms: _5  and  _6
REMARK    3  A    between atoms: _5  and  _8
REMARK    4  A    between atoms: _8  and  _9
REMARK    5  A    between atoms: _12  and  _14
REMARK    6  A    between atoms: _14  and  _15
REMARK    7  A    between atoms: _14  and  _17
REMARK    8  A    between atoms: _20  and  _22
REMARK    9  A    between atoms: _22  and  _23
REMARK   10  A    between atoms: _22  and  _25
REMARK   11  A    between atoms: _25  and  _26
REMARK   12  A    between atoms: _29  and  _31
REMARK   13  A    between atoms: _31  and  _32
REMARK   14  A    between atoms: _31  and  _34
REMARK   15  A    between atoms: _34  and  _35
REMARK   16  A    between atoms: _38  and  _40
REMARK   17  A    between atoms: _40  and  _41
REMARK   18  A    between atoms: _40  and  _43
REMARK   19  A    between atoms: _43  and  _44
REMARK   20  A    between atoms: _47  and  _49
REMARK   21  A    between atoms: _49  and  _50
REMARK   22  A    between atoms: _49  and  _52
REMARK   23  A    between atoms: _52  and  _53
REMARK   24  A    between atoms: _53  and  _54
REMARK   25  A    between atoms: _59  and  _61
REMARK   26  A    between atoms: _61  and  _62
REMARK   27  A    between atoms: _61  and  _64
REMARK   28  A    between atoms: _64  and  _65
REMARK   29  A    between atoms: _65  and  _66
REMARK   30  A    between atoms: _66  and  _67
REMARK   31  A    between atoms: _76  and  _78
REMARK   32  A    between atoms: _78  and  _79
REMARK   33  A    between atoms: _78  and  _81
REMARK   34  A    between atoms: _81  and  _82
REMARK   35  A    between atoms: _87  and  _89
REMARK   36  A    between atoms: _89  and  _90
REMARK   37  A    between atoms: _89  and  _92
REMARK   38  A    between atoms: _92  and  _93
REMARK   39  A    between atoms: _96  and  _98
REMARK   40  A    between atoms: _98  and  _99
REMARK   41  A    between atoms: _98  and  _101
REMARK   42  A    between atoms: _101  and  _102
REMARK   43  A    between atoms: _102  and  _137
REMARK   44  A    between atoms: _103  and  _105
REMARK   45  A    between atoms: _105  and  _106
REMARK   46  A    between atoms: _108  and  _110
REMARK   47  A    between atoms: _110  and  _111
REMARK   48  A    between atoms: _114  and  _116
REMARK   49  A    between atoms: _116  and  _117
REMARK   50  A    between atoms: _120  and  _122
REMARK   51  A    between atoms: _122  and  _123
REMARK   52  A    between atoms: _122  and  _125
REMARK   53  A    between atoms: _125  and  _126
REMARK   54  A    between atoms: _131  and  _133
REMARK   55  A    between atoms: _133  and  _134
REMARK   56  A    between atoms: _133  and  _136
REMARK   57  A    between atoms: _136  and  _137
REMARK   58  A    between atoms: _138  and  _140
REMARK   59  A    between atoms: _140  and  _141
REMARK   60  A    between atoms: _140  and  _143
REMARK   61  A    between atoms: _143  and  _144
REMARK   62  A    between atoms: _150  and  _152
REMARK   63  A    between atoms: _152  and  _153
REMARK   64  A    between atoms: _152  and  _155
REMARK   65  A    between atoms: _155  and  _156
REMARK   66  A    between atoms: _161  and  _162
REMARK   67  A    between atoms: _164  and  _166
REMARK   68  A    between atoms: _166  and  _167
REMARK   69  A    between atoms: _169  and  _171
REMARK   70  A    between atoms: _171  and  _172
REMARK   71  A    between atoms: _171  and  _174
REMARK   72  A    between atoms: _177  and  _179
REMARK   73  A    between atoms: _179  and  _180
REMARK   74  A    between atoms: _183  and  _185
REMARK   75  A    between atoms: _185  and  _186
REMARK   76  A    between atoms: _185  and  _188
REMARK   77  A    between atoms: _188  and  _189
REMARK   78  A    between atoms: _192  and  _194
REMARK   79  A    between atoms: _194  and  _195
REMARK   80  A    between atoms: _194  and  _197
REMARK   81  A    between atoms: _200  and  _202
REMARK   82  A    between atoms: _202  and  _203
REMARK   83  A    between atoms: _202  and  _205
REMARK   84  A    between atoms: _205  and  _206
REMARK   85  A    between atoms: _216  and  _218
REMARK   86  A    between atoms: _218  and  _219
REMARK   87  A    between atoms: _221  and  _223
REMARK   88  A    between atoms: _223  and  _224
REMARK   89  A    between atoms: _223  and  _226
REMARK   90  A    between atoms: _226  and  _227
REMARK   91  A    between atoms: _232  and  _233
REMARK   92  A    between atoms: _235  and  _237
REMARK   93  A    between atoms: _237  and  _238
REMARK   94  A    between atoms: _237  and  _240
REMARK   95  A    between atoms: _240  and  _241
REMARK   96  A    between atoms: _241  and  _242
REMARK   97  A    between atoms: _242  and  _243
REMARK   98  A    between atoms: _243  and  _244
REMARK   99  A    between atoms: _248  and  _250
REMARK  100  A    between atoms: _250  and  _251
REMARK  101  A    between atoms: _250  and  _253
REMARK  102  A    between atoms: _253  and  _254
REMARK  103  A    between atoms: _257  and  _259
REMARK  104  A    between atoms: _259  and  _260
REMARK  105  A    between atoms: _259  and  _262
REMARK  106  A    between atoms: _262  and  _263
REMARK  107  A    between atoms: _266  and  _268
REMARK  108  A    between atoms: _268  and  _269
REMARK  109  A    between atoms: _268  and  _271
REMARK  110  A    between atoms: _271  and  _272
REMARK  111  A    between atoms: _272  and  _273
REMARK  112  A    between atoms: _273  and  _274
REMARK  113  A    between atoms: _274  and  _275
REMARK  114  A    between atoms: _279  and  _281
REMARK  115  A    between atoms: _281  and  _282
REMARK  116  A    between atoms: _281  and  _284
REMARK  117  A    between atoms: _284  and  _285
REMARK  118  A    between atoms: _288  and  _290
REMARK  119  A    between atoms: _290  and  _291
REMARK  120  A    between atoms: _290  and  _293
REMARK  121  A    between atoms: _293  and  _294
REMARK  122  A    between atoms: _294  and  _295
REMARK  123  A    between atoms: _300  and  _302
REMARK  124  A    between atoms: _302  and  _303
REMARK  125  A    between atoms: _302  and  _305
REMARK  126  A    between atoms: _305  and  _306
REMARK  127  A    between atoms: _311  and  _312
REMARK  128  A    between atoms: _314  and  _316
REMARK  129  A    between atoms: _316  and  _317
REMARK  130  A    between atoms: _316  and  _319
REMARK  131  A    between atoms: _319  and  _320
REMARK  132  A    between atoms: _323  and  _325
REMARK  133  A    between atoms: _325  and  _326
REMARK  134  A    between atoms: _325  and  _328
REMARK  135  A    between atoms: _330  and  _332
REMARK  136  A    between atoms: _332  and  _333
REMARK  137  A    between atoms: _336  and  _338
REMARK  138  A    between atoms: _338  and  _339
REMARK  139  A    between atoms: _338  and  _341
REMARK  140  A    between atoms: _341  and  _342
REMARK  141  A    between atoms: _345  and  _347
REMARK  142  A    between atoms: _347  and  _348
REMARK  143  A    between atoms: _351  and  _353
REMARK  144  A    between atoms: _353  and  _354
REMARK  145  A    between atoms: _353  and  _356
REMARK  146  A    between atoms: _356  and  _357
REMARK  147  A    between atoms: _357  and  _480
REMARK  148  A    between atoms: _358  and  _360
REMARK  149  A    between atoms: _360  and  _361
REMARK  150  A    between atoms: _360  and  _363
REMARK  151  A    between atoms: _363  and  _364
REMARK  152  A    between atoms: _364  and  _365
REMARK  153  A    between atoms: _365  and  _366
REMARK  154  A    between atoms: _366  and  _367
REMARK  155  A    between atoms: _371  and  _373
REMARK  156  A    between atoms: _373  and  _374
REMARK  157  A    between atoms: _376  and  _378
REMARK  158  A    between atoms: _378  and  _379
REMARK  159  A    between atoms: _378  and  _381
REMARK  160  A    between atoms: _381  and  _382
REMARK  161  A    between atoms: _385  and  _387
REMARK  162  A    between atoms: _387  and  _388
REMARK  163  A    between atoms: _387  and  _390
REMARK  164  A    between atoms: _390  and  _391
REMARK  165  A    between atoms: _393  and  _395
REMARK  166  A    between atoms: _395  and  _396
REMARK  167  A    between atoms: _398  and  _400
REMARK  168  A    between atoms: _400  and  _401
REMARK  169  A    between atoms: _403  and  _405
REMARK  170  A    between atoms: _405  and  _406
REMARK  171  A    between atoms: _405  and  _408
REMARK  172  A    between atoms: _408  and  _409
REMARK  173  A    between atoms: _412  and  _414
REMARK  174  A    between atoms: _414  and  _415
REMARK  175  A    between atoms: _414  and  _417
REMARK  176  A    between atoms: _417  and  _418
REMARK  177  A    between atoms: _421  and  _423
REMARK  178  A    between atoms: _423  and  _424
REMARK  179  A    between atoms: _423  and  _426
REMARK  180  A    between atoms: _426  and  _427
REMARK  181  A    between atoms: _430  and  _432
REMARK  182  A    between atoms: _432  and  _433
REMARK  183  A    between atoms: _432  and  _435
REMARK  184  A    between atoms: _435  and  _436
REMARK  185  A    between atoms: _438  and  _440
REMARK  186  A    between atoms: _440  and  _441
REMARK  187  A    between atoms: _440  and  _443
REMARK  188  A    between atoms: _443  and  _444
REMARK  189  A    between atoms: _454  and  _456
REMARK  190  A    between atoms: _456  and  _457
REMARK  191  A    between atoms: _459  and  _461
REMARK  192  A    between atoms: _461  and  _462
REMARK  193  A    between atoms: _461  and  _464
REMARK  194  A    between atoms: _464  and  _465
REMARK  195  A    between atoms: _465  and  _466
REMARK  196  A    between atoms: _469  and  _471
REMARK  197  A    between atoms: _471  and  _472
REMARK  198  A    between atoms: _474  and  _476
REMARK  199  A    between atoms: _476  and  _477
REMARK  200  A    between atoms: _476  and  _479
REMARK  201  A    between atoms: _479  and  _480
REMARK  202  A    between atoms: _481  and  _483
REMARK  203  A    between atoms: _483  and  _484
REMARK  204  A    between atoms: _487  and  _489
REMARK  205  A    between atoms: _489  and  _490
REMARK  206  A    between atoms: _489  and  _492
REMARK  207  A    between atoms: _492  and  _493
REMARK  208  A    between atoms: _493  and  _494
REMARK  209  A    between atoms: _499  and  _501
REMARK  210  A    between atoms: _501  and  _502
REMARK  211  A    between atoms: _501  and  _504
REMARK  212  A    between atoms: _504  and  _505
REMARK  213  A    between atoms: _505  and  _506
REMARK  214  A    between atoms: _506  and  _507
REMARK  215  A    between atoms: _517  and  _518
REMARK  216  A    between atoms: _523  and  _525
REMARK  217  A    between atoms: _525  and  _526
REMARK  218  A    between atoms: _528  and  _530
REMARK  219  A    between atoms: _530  and  _531
REMARK  220  A    between atoms: _530  and  _533
REMARK  221  A    between atoms: _536  and  _538
REMARK  222  A    between atoms: _538  and  _539
REMARK  223  A    between atoms: _538  and  _541
REMARK  224  A    between atoms: _541  and  _542
REMARK  225  A    between atoms: _547  and  _548
REMARK  226  A    between atoms: _550  and  _552
REMARK  227  A    between atoms: _552  and  _553
REMARK  228  A    between atoms: _552  and  _555
REMARK  229  A    between atoms: _555  and  _556
REMARK                            x       y       z     vdW  Elec       q    Type
REMARK                         _______ _______ _______ _____ _____    ______ ____
ROOT
ATOM      1  O   HOH     1      41.068 -17.935  37.475  0.00  0.00    +0.000 OA
ENDROOT
TORSDOF 0
REMARK  Name = ../refined-set-2016/4x6n/4x6n_pocket.pdb
REMARK  229 active torsions:
REMARK  status: ('A' for Active; 'I' for Inactive)
REMARK    1  A    between atoms: _1  and  _5
REMARK    2  A    between atoms: _5  and  _6
REMARK    3  A    between atoms: _5  and  _8
REMARK    4  A    between atoms: _8  and  _9
REMARK    5  A    between atoms: _12  and  _14
REMARK    6  A    between atoms: _14  and  _15
REMARK    7  A    between atoms: _14  and  _17
REMARK    8  A    between atoms: _20  and  _22
REMARK    9  A    between atoms: _22  and  _23
REMARK   10  A    between atoms: _22  and  _25
REMARK   11  A    between atoms: _25  and  _26
REMARK   12  A    between atoms: _29  and  _31
REMARK   13  A    between atoms: _31  and  _32
REMARK   14  A    between atoms: _31  and  _34
REMARK   15  A    between atoms: _34  and  _35
REMARK   16  A    between atoms: _38  and  _40
REMARK   17  A    between atoms: _40  and  _41
REMARK   18  A    between atoms: _40  and  _43
REMARK   19  A    between atoms: _43  and  _44
REMARK   20  A    between atoms: _47  and  _49
REMARK   21  A    between atoms: _49  and  _50
REMARK   22  A    between atoms: _49  and  _52
REMARK   23  A    between atoms: _52  and  _53
REMARK   24  A    between atoms: _53  and  _54
REMARK   25  A    between atoms: _59  and  _61
REMARK   26  A    between atoms: _61  and  _62
REMARK   27  A    between atoms: _61  and  _64
REMARK   28  A    between atoms: _64  and  _65
REMARK   29  A    between atoms: _65  and  _66
REMARK   30  A    between atoms: _66  and  _67
REMARK   31  A    between atoms: _76  and  _78
REMARK   32  A    between atoms: _78  and  _79
REMARK   33  A    between atoms: _78  and  _81
REMARK   34  A    between atoms: _81  and  _82
REMARK   35  A    between atoms: _87  and  _89
REMARK   36  A    between atoms: _89  and  _90
REMARK   37  A    between atoms: _89  and  _92
REMARK   38  A    between atoms: _92  and  _93
REMARK   39  A    between atoms: _96  and  _98
REMARK   40  A    between atoms: _98  and  _99
REMARK   41  A    between atoms: _98  and  _101
REMARK   42  A    between atoms: _101  and  _102
REMARK   43  A    between atoms: _102  and  _137
REMARK   44  A    between atoms: _103  and  _105
REMARK   45  A    between atoms: _105  and  _106
REMARK   46  A    between atoms: _108  and  _110
REMARK   47  A    between atoms: _110  and  _111
REMARK   48  A    between atoms: _114  and  _116
REMARK   49  A    between atoms: _116  and  _117
REMARK   50  A    between atoms: _120  and  _122
REMARK   51  A    between atoms: _122  and  _123
REMARK   52  A    between atoms: _122  and  _125
REMARK   53  A    between atoms: _125  and  _126
REMARK   54  A    between atoms: _131  and  _133
REMARK   55  A    between atoms: _133  and  _134
REMARK   56  A    between atoms: _133  and  _136
REMARK   57  A    between atoms: _136  and  _137
REMARK   58  A    between atoms: _138  and  _140
REMARK   59  A    between atoms: _140  and  _141
REMARK   60  A    between atoms: _140  and  _143
REMARK   61  A    between atoms: _143  and  _144
REMARK   62  A    between atoms: _150  and  _152
REMARK   63  A    between atoms: _152  and  _153
REMARK   64  A    between atoms: _152  and  _155
REMARK   65  A    between atoms: _155  and  _156
REMARK   66  A    between atoms: _161  and  _162
REMARK   67  A    between atoms: _164  and  _166
REMARK   68  A    between atoms: _166  and  _167
REMARK   69  A    between atoms: _169  and  _171
REMARK   70  A    between atoms: _171  and  _172
REMARK   71  A    between atoms: _171  and  _174
REMARK   72  A    between atoms: _177  and  _179
REMARK   73  A    between atoms: _179  and  _180
REMARK   74  A    between atoms: _183  and  _185
REMARK   75  A    between atoms: _185  and  _186
REMARK   76  A    between atoms: _185  and  _188
REMARK   77  A    between atoms: _188  and  _189
REMARK   78  A    between atoms: _192  and  _194
REMARK   79  A    between atoms: _194  and  _195
REMARK   80  A    between atoms: _194  and  _197
REMARK   81  A    between atoms: _200  and  _202
REMARK   82  A    between atoms: _202  and  _203
REMARK   83  A    between atoms: _202  and  _205
REMARK   84  A    between atoms: _205  and  _206
REMARK   85  A    between atoms: _216  and  _218
REMARK   86  A    between atoms: _218  and  _219
REMARK   87  A    between atoms: _221  and  _223
REMARK   88  A    between atoms: _223  and  _224
REMARK   89  A    between atoms: _223  and  _226
REMARK   90  A    between atoms: _226  and  _227
REMARK   91  A    between atoms: _232  and  _233
REMARK   92  A    between atoms: _235  and  _237
REMARK   93  A    between atoms: _237  and  _238
REMARK   94  A    between atoms: _237  and  _240
REMARK   95  A    between atoms: _240  and  _241
REMARK   96  A    between atoms: _241  and  _242
REMARK   97  A    between atoms: _242  and  _243
REMARK   98  A    between atoms: _243  and  _244
REMARK   99  A    between atoms: _248  and  _250
REMARK  100  A    between atoms: _250  and  _251
REMARK  101  A    between atoms: _250  and  _253
REMARK  102  A    between atoms: _253  and  _254
REMARK  103  A    between atoms: _257  and  _259
REMARK  104  A    between atoms: _259  and  _260
REMARK  105  A    between atoms: _259  and  _262
REMARK  106  A    between atoms: _262  and  _263
REMARK  107  A    between atoms: _266  and  _268
REMARK  108  A    between atoms: _268  and  _269
REMARK  109  A    between atoms: _268  and  _271
REMARK  110  A    between atoms: _271  and  _272
REMARK  111  A    between atoms: _272  and  _273
REMARK  112  A    between atoms: _273  and  _274
REMARK  113  A    between atoms: _274  and  _275
REMARK  114  A    between atoms: _279  and  _281
REMARK  115  A    between atoms: _281  and  _282
REMARK  116  A    between atoms: _281  and  _284
REMARK  117  A    between atoms: _284  and  _285
REMARK  118  A    between atoms: _288  and  _290
REMARK  119  A    between atoms: _290  and  _291
REMARK  120  A    between atoms: _290  and  _293
REMARK  121  A    between atoms: _293  and  _294
REMARK  122  A    between atoms: _294  and  _295
REMARK  123  A    between atoms: _300  and  _302
REMARK  124  A    between atoms: _302  and  _303
REMARK  125  A    between atoms: _302  and  _305
REMARK  126  A    between atoms: _305  and  _306
REMARK  127  A    between atoms: _311  and  _312
REMARK  128  A    between atoms: _314  and  _316
REMARK  129  A    between atoms: _316  and  _317
REMARK  130  A    between atoms: _316  and  _319
REMARK  131  A    between atoms: _319  and  _320
REMARK  132  A    between atoms: _323  and  _325
REMARK  133  A    between atoms: _325  and  _326
REMARK  134  A    between atoms: _325  and  _328
REMARK  135  A    between atoms: _330  and  _332
REMARK  136  A    between atoms: _332  and  _333
REMARK  137  A    between atoms: _336  and  _338
REMARK  138  A    between atoms: _338  and  _339
REMARK  139  A    between atoms: _338  and  _341
REMARK  140  A    between atoms: _341  and  _342
REMARK  141  A    between atoms: _345  and  _347
REMARK  142  A    between atoms: _347  and  _348
REMARK  143  A    between atoms: _351  and  _353
REMARK  144  A    between atoms: _353  and  _354
REMARK  145  A    between atoms: _353  and  _356
REMARK  146  A    between atoms: _356  and  _357
REMARK  147  A    between atoms: _357  and  _480
REMARK  148  A    between atoms: _358  and  _360
REMARK  149  A    between atoms: _360  and  _361
REMARK  150  A    between atoms: _360  and  _363
REMARK  151  A    between atoms: _363  and  _364
REMARK  152  A    between atoms: _364  and  _365
REMARK  153  A    between atoms: _365  and  _366
REMARK  154  A    between atoms: _366  and  _367
REMARK  155  A    between atoms: _371  and  _373
REMARK  156  A    between atoms: _373  and  _374
REMARK  157  A    between atoms: _376  and  _378
REMARK  158  A    between atoms: _378  and  _379
REMARK  159  A    between atoms: _378  and  _381
REMARK  160  A    between atoms: _381  and  _382
REMARK  161  A    between atoms: _385  and  _387
REMARK  162  A    between atoms: _387  and  _388
REMARK  163  A    between atoms: _387  and  _390
REMARK  164  A    between atoms: _390  and  _391
REMARK  165  A    between atoms: _393  and  _395
REMARK  166  A    between atoms: _395  and  _396
REMARK  167  A    between atoms: _398  and  _400
REMARK  168  A    between atoms: _400  and  _401
REMARK  169  A    between atoms: _403  and  _405
REMARK  170  A    between atoms: _405  and  _406
REMARK  171  A    between atoms: _405  and  _408
REMARK  172  A    between atoms: _408  and  _409
REMARK  173  A    between atoms: _412  and  _414
REMARK  174  A    between atoms: _414  and  _415
REMARK  175  A    between atoms: _414  and  _417
REMARK  176  A    between atoms: _417  and  _418
REMARK  177  A    between atoms: _421  and  _423
REMARK  178  A    between atoms: _423  and  _424
REMARK  179  A    between atoms: _423  and  _426
REMARK  180  A    between atoms: _426  and  _427
REMARK  181  A    between atoms: _430  and  _432
REMARK  182  A    between atoms: _432  and  _433
REMARK  183  A    between atoms: _432  and  _435
REMARK  184  A    between atoms: _435  and  _436
REMARK  185  A    between atoms: _438  and  _440
REMARK  186  A    between atoms: _440  and  _441
REMARK  187  A    between atoms: _440  and  _443
REMARK  188  A    between atoms: _443  and  _444
REMARK  189  A    between atoms: _454  and  _456
REMARK  190  A    between atoms: _456  and  _457
REMARK  191  A    between atoms: _459  and  _461
REMARK  192  A    between atoms: _461  and  _462
REMARK  193  A    between atoms: _461  and  _464
REMARK  194  A    between atoms: _464  and  _465
REMARK  195  A    between atoms: _465  and  _466
REMARK  196  A    between atoms: _469  and  _471
REMARK  197  A    between atoms: _471  and  _472
REMARK  198  A    between atoms: _474  and  _476
REMARK  199  A    between atoms: _476  and  _477
REMARK  200  A    between atoms: _476  and  _479
REMARK  201  A    between atoms: _479  and  _480
REMARK  202  A    between atoms: _481  and  _483
REMARK  203  A    between atoms: _483  and  _484
REMARK  204  A    between atoms: _487  and  _489
REMARK  205  A    between atoms: _489  and  _490
REMARK  206  A    between atoms: _489  and  _492
REMARK  207  A    between atoms: _492  and  _493
REMARK  208  A    between atoms: _493  and  _494
REMARK  209  A    between atoms: _499  and  _501
REMARK  210  A    between atoms: _501  and  _502
REMARK  211  A    between atoms: _501  and  _504
REMARK  212  A    between atoms: _504  and  _505
REMARK  213  A    between atoms: _505  and  _506
REMARK  214  A    between atoms: _506  and  _507
REMARK  215  A    between atoms: _517  and  _518
REMARK  216  A    between atoms: _523  and  _525
REMARK  217  A    between atoms: _525  and  _526
REMARK  218  A    between atoms: _528  and  _530
REMARK  219  A    between atoms: _530  and  _531
REMARK  220  A    between atoms: _530  and  _533
REMARK  221  A    between atoms: _536  and  _538
REMARK  222  A    between atoms: _538  and  _539
REMARK  223  A    between atoms: _538  and  _541
REMARK  224  A    between atoms: _541  and  _542
REMARK  225  A    between atoms: _547  and  _548
REMARK  226  A    between atoms: _550  and  _552
REMARK  227  A    between atoms: _552  and  _553
REMARK  228  A    between atoms: _552  and  _555
REMARK  229  A    between atoms: _555  and  _556
REMARK                            x       y       z     vdW  Elec       q    Type
REMARK                         _______ _______ _______ _____ _____    ______ ____
ROOT
ATOM      1  O   HOH     1      36.674  -9.216  23.945  0.00  0.00    +0.000 OA
ENDROOT
TORSDOF 0
REMARK  Name = ../refined-set-2016/4x6n/4x6n_pocket.pdb
REMARK  229 active torsions:
REMARK  status: ('A' for Active; 'I' for Inactive)
REMARK    1  A    between atoms: _1  and  _5
REMARK    2  A    between atoms: _5  and  _6
REMARK    3  A    between atoms: _5  and  _8
REMARK    4  A    between atoms: _8  and  _9
REMARK    5  A    between atoms: _12  and  _14
REMARK    6  A    between atoms: _14  and  _15
REMARK    7  A    between atoms: _14  and  _17
REMARK    8  A    between atoms: _20  and  _22
REMARK    9  A    between atoms: _22  and  _23
REMARK   10  A    between atoms: _22  and  _25
REMARK   11  A    between atoms: _25  and  _26
REMARK   12  A    between atoms: _29  and  _31
REMARK   13  A    between atoms: _31  and  _32
REMARK   14  A    between atoms: _31  and  _34
REMARK   15  A    between atoms: _34  and  _35
REMARK   16  A    between atoms: _38  and  _40
REMARK   17  A    between atoms: _40  and  _41
REMARK   18  A    between atoms: _40  and  _43
REMARK   19  A    between atoms: _43  and  _44
REMARK   20  A    between atoms: _47  and  _49
REMARK   21  A    between atoms: _49  and  _50
REMARK   22  A    between atoms: _49  and  _52
REMARK   23  A    between atoms: _52  and  _53
REMARK   24  A    between atoms: _53  and  _54
REMARK   25  A    between atoms: _59  and  _61
REMARK   26  A    between atoms: _61  and  _62
REMARK   27  A    between atoms: _61  and  _64
REMARK   28  A    between atoms: _64  and  _65
REMARK   29  A    between atoms: _65  and  _66
REMARK   30  A    between atoms: _66  and  _67
REMARK   31  A    between atoms: _76  and  _78
REMARK   32  A    between atoms: _78  and  _79
REMARK   33  A    between atoms: _78  and  _81
REMARK   34  A    between atoms: _81  and  _82
REMARK   35  A    between atoms: _87  and  _89
REMARK   36  A    between atoms: _89  and  _90
REMARK   37  A    between atoms: _89  and  _92
REMARK   38  A    between atoms: _92  and  _93
REMARK   39  A    between atoms: _96  and  _98
REMARK   40  A    between atoms: _98  and  _99
REMARK   41  A    between atoms: _98  and  _101
REMARK   42  A    between atoms: _101  and  _102
REMARK   43  A    between atoms: _102  and  _137
REMARK   44  A    between atoms: _103  and  _105
REMARK   45  A    between atoms: _105  and  _106
REMARK   46  A    between atoms: _108  and  _110
REMARK   47  A    between atoms: _110  and  _111
REMARK   48  A    between atoms: _114  and  _116
REMARK   49  A    between atoms: _116  and  _117
REMARK   50  A    between atoms: _120  and  _122
REMARK   51  A    between atoms: _122  and  _123
REMARK   52  A    between atoms: _122  and  _125
REMARK   53  A    between atoms: _125  and  _126
REMARK   54  A    between atoms: _131  and  _133
REMARK   55  A    between atoms: _133  and  _134
REMARK   56  A    between atoms: _133  and  _136
REMARK   57  A    between atoms: _136  and  _137
REMARK   58  A    between atoms: _138  and  _140
REMARK   59  A    between atoms: _140  and  _141
REMARK   60  A    between atoms: _140  and  _143
REMARK   61  A    between atoms: _143  and  _144
REMARK   62  A    between atoms: _150  and  _152
REMARK   63  A    between atoms: _152  and  _153
REMARK   64  A    between atoms: _152  and  _155
REMARK   65  A    between atoms: _155  and  _156
REMARK   66  A    between atoms: _161  and  _162
REMARK   67  A    between atoms: _164  and  _166
REMARK   68  A    between atoms: _166  and  _167
REMARK   69  A    between atoms: _169  and  _171
REMARK   70  A    between atoms: _171  and  _172
REMARK   71  A    between atoms: _171  and  _174
REMARK   72  A    between atoms: _177  and  _179
REMARK   73  A    between atoms: _179  and  _180
REMARK   74  A    between atoms: _183  and  _185
REMARK   75  A    between atoms: _185  and  _186
REMARK   76  A    between atoms: _185  and  _188
REMARK   77  A    between atoms: _188  and  _189
REMARK   78  A    between atoms: _192  and  _194
REMARK   79  A    between atoms: _194  and  _195
REMARK   80  A    between atoms: _194  and  _197
REMARK   81  A    between atoms: _200  and  _202
REMARK   82  A    between atoms: _202  and  _203
REMARK   83  A    between atoms: _202  and  _205
REMARK   84  A    between atoms: _205  and  _206
REMARK   85  A    between atoms: _216  and  _218
REMARK   86  A    between atoms: _218  and  _219
REMARK   87  A    between atoms: _221  and  _223
REMARK   88  A    between atoms: _223  and  _224
REMARK   89  A    between atoms: _223  and  _226
REMARK   90  A    between atoms: _226  and  _227
REMARK   91  A    between atoms: _232  and  _233
REMARK   92  A    between atoms: _235  and  _237
REMARK   93  A    between atoms: _237  and  _238
REMARK   94  A    between atoms: _237  and  _240
REMARK   95  A    between atoms: _240  and  _241
REMARK   96  A    between atoms: _241  and  _242
REMARK   97  A    between atoms: _242  and  _243
REMARK   98  A    between atoms: _243  and  _244
REMARK   99  A    between atoms: _248  and  _250
REMARK  100  A    between atoms: _250  and  _251
REMARK  101  A    between atoms: _250  and  _253
REMARK  102  A    between atoms: _253  and  _254
REMARK  103  A    between atoms: _257  and  _259
REMARK  104  A    between atoms: _259  and  _260
REMARK  105  A    between atoms: _259  and  _262
REMARK  106  A    between atoms: _262  and  _263
REMARK  107  A    between atoms: _266  and  _268
REMARK  108  A    between atoms: _268  and  _269
REMARK  109  A    between atoms: _268  and  _271
REMARK  110  A    between atoms: _271  and  _272
REMARK  111  A    between atoms: _272  and  _273
REMARK  112  A    between atoms: _273  and  _274
REMARK  113  A    between atoms: _274  and  _275
REMARK  114  A    between atoms: _279  and  _281
REMARK  115  A    between atoms: _281  and  _282
REMARK  116  A    between atoms: _281  and  _284
REMARK  117  A    between atoms: _284  and  _285
REMARK  118  A    between atoms: _288  and  _290
REMARK  119  A    between atoms: _290  and  _291
REMARK  120  A    between atoms: _290  and  _293
REMARK  121  A    between atoms: _293  and  _294
REMARK  122  A    between atoms: _294  and  _295
REMARK  123  A    between atoms: _300  and  _302
REMARK  124  A    between atoms: _302  and  _303
REMARK  125  A    between atoms: _302  and  _305
REMARK  126  A    between atoms: _305  and  _306
REMARK  127  A    between atoms: _311  and  _312
REMARK  128  A    between atoms: _314  and  _316
REMARK  129  A    between atoms: _316  and  _317
REMARK  130  A    between atoms: _316  and  _319
REMARK  131  A    between atoms: _319  and  _320
REMARK  132  A    between atoms: _323  and  _325
REMARK  133  A    between atoms: _325  and  _326
REMARK  134  A    between atoms: _325  and  _328
REMARK  135  A    between atoms: _330  and  _332
REMARK  136  A    between atoms: _332  and  _333
REMARK  137  A    between atoms: _336  and  _338
REMARK  138  A    between atoms: _338  and  _339
REMARK  139  A    between atoms: _338  and  _341
REMARK  140  A    between atoms: _341  and  _342
REMARK  141  A    between atoms: _345  and  _347
REMARK  142  A    between atoms: _347  and  _348
REMARK  143  A    between atoms: _351  and  _353
REMARK  144  A    between atoms: _353  and  _354
REMARK  145  A    between atoms: _353  and  _356
REMARK  146  A    between atoms: _356  and  _357
REMARK  147  A    between atoms: _357  and  _480
REMARK  148  A    between atoms: _358  and  _360
REMARK  149  A    between atoms: _360  and  _361
REMARK  150  A    between atoms: _360  and  _363
REMARK  151  A    between atoms: _363  and  _364
REMARK  152  A    between atoms: _364  and  _365
REMARK  153  A    between atoms: _365  and  _366
REMARK  154  A    between atoms: _366  and  _367
REMARK  155  A    between atoms: _371  and  _373
REMARK  156  A    between atoms: _373  and  _374
REMARK  157  A    between atoms: _376  and  _378
REMARK  158  A    between atoms: _378  and  _379
REMARK  159  A    between atoms: _378  and  _381
REMARK  160  A    between atoms: _381  and  _382
REMARK  161  A    between atoms: _385  and  _387
REMARK  162  A    between atoms: _387  and  _388
REMARK  163  A    between atoms: _387  and  _390
REMARK  164  A    between atoms: _390  and  _391
REMARK  165  A    between atoms: _393  and  _395
REMARK  166  A    between atoms: _395  and  _396
REMARK  167  A    between atoms: _398  and  _400
REMARK  168  A    between atoms: _400  and  _401
REMARK  169  A    between atoms: _403  and  _405
REMARK  170  A    between atoms: _405  and  _406
REMARK  171  A    between atoms: _405  and  _408
REMARK  172  A    between atoms: _408  and  _409
REMARK  173  A    between atoms: _412  and  _414
REMARK  174  A    between atoms: _414  and  _415
REMARK  175  A    between atoms: _414  and  _417
REMARK  176  A    between atoms: _417  and  _418
REMARK  177  A    between atoms: _421  and  _423
REMARK  178  A    between atoms: _423  and  _424
REMARK  179  A    between atoms: _423  and  _426
REMARK  180  A    between atoms: _426  and  _427
REMARK  181  A    between atoms: _430  and  _432
REMARK  182  A    between atoms: _432  and  _433
REMARK  183  A    between atoms: _432  and  _435
REMARK  184  A    between atoms: _435  and  _436
REMARK  185  A    between atoms: _438  and  _440
REMARK  186  A    between atoms: _440  and  _441
REMARK  187  A    between atoms: _440  and  _443
REMARK  188  A    between atoms: _443  and  _444
REMARK  189  A    between atoms: _454  and  _456
REMARK  190  A    between atoms: _456  and  _457
REMARK  191  A    between atoms: _459  and  _461
REMARK  192  A    between atoms: _461  and  _462
REMARK  193  A    between atoms: _461  and  _464
REMARK  194  A    between atoms: _464  and  _465
REMARK  195  A    between atoms: _465  and  _466
REMARK  196  A    between atoms: _469  and  _471
REMARK  197  A    between atoms: _471  and  _472
REMARK  198  A    between atoms: _474  and  _476
REMARK  199  A    between atoms: _476  and  _477
REMARK  200  A    between atoms: _476  and  _479
REMARK  201  A    between atoms: _479  and  _480
REMARK  202  A    between atoms: _481  and  _483
REMARK  203  A    between atoms: _483  and  _484
REMARK  204  A    between atoms: _487  and  _489
REMARK  205  A    between atoms: _489  and  _490
REMARK  206  A    between atoms: _489  and  _492
REMARK  207  A    between atoms: _492  and  _493
REMARK  208  A    between atoms: _493  and  _494
REMARK  209  A    between atoms: _499  and  _501
REMARK  210  A    between atoms: _501  and  _502
REMARK  211  A    between atoms: _501  and  _504
REMARK  212  A    between atoms: _504  and  _505
REMARK  213  A    between atoms: _505  and  _506
REMARK  214  A    between atoms: _506  and  _507
REMARK  215  A    between atoms: _517  and  _518
REMARK  216  A    between atoms: _523  and  _525
REMARK  217  A    between atoms: _525  and  _526
REMARK  218  A    between atoms: _528  and  _530
REMARK  219  A    between atoms: _530  and  _531
REMARK  220  A    between atoms: _530  and  _533
REMARK  221  A    between atoms: _536  and  _538
REMARK  222  A    between atoms: _538  and  _539
REMARK  223  A    between atoms: _538  and  _541
REMARK  224  A    between atoms: _541  and  _542
REMARK  225  A    between atoms: _547  and  _548
REMARK  226  A    between atoms: _550  and  _552
REMARK  227  A    between atoms: _552  and  _553
REMARK  228  A    between atoms: _552  and  _555
REMARK  229  A    between atoms: _555  and  _556
REMARK                            x       y       z     vdW  Elec       q    Type
REMARK                         _______ _______ _______ _____ _____    ______ ____
ROOT
ATOM      1  O   HOH     1      41.150 -29.474  29.969  0.00  0.00    +0.000 OA
ENDROOT
TORSDOF 0
REMARK  Name = ../refined-set-2016/4x6n/4x6n_pocket.pdb
REMARK  229 active torsions:
REMARK  status: ('A' for Active; 'I' for Inactive)
REMARK    1  A    between atoms: _1  and  _5
REMARK    2  A    between atoms: _5  and  _6
REMARK    3  A    between atoms: _5  and  _8
REMARK    4  A    between atoms: _8  and  _9
REMARK    5  A    between atoms: _12  and  _14
REMARK    6  A    between atoms: _14  and  _15
REMARK    7  A    between atoms: _14  and  _17
REMARK    8  A    between atoms: _20  and  _22
REMARK    9  A    between atoms: _22  and  _23
REMARK   10  A    between atoms: _22  and  _25
REMARK   11  A    between atoms: _25  and  _26
REMARK   12  A    between atoms: _29  and  _31
REMARK   13  A    between atoms: _31  and  _32
REMARK   14  A    between atoms: _31  and  _34
REMARK   15  A    between atoms: _34  and  _35
REMARK   16  A    between atoms: _38  and  _40
REMARK   17  A    between atoms: _40  and  _41
REMARK   18  A    between atoms: _40  and  _43
REMARK   19  A    between atoms: _43  and  _44
REMARK   20  A    between atoms: _47  and  _49
REMARK   21  A    between atoms: _49  and  _50
REMARK   22  A    between atoms: _49  and  _52
REMARK   23  A    between atoms: _52  and  _53
REMARK   24  A    between atoms: _53  and  _54
REMARK   25  A    between atoms: _59  and  _61
REMARK   26  A    between atoms: _61  and  _62
REMARK   27  A    between atoms: _61  and  _64
REMARK   28  A    between atoms: _64  and  _65
REMARK   29  A    between atoms: _65  and  _66
REMARK   30  A    between atoms: _66  and  _67
REMARK   31  A    between atoms: _76  and  _78
REMARK   32  A    between atoms: _78  and  _79
REMARK   33  A    between atoms: _78  and  _81
REMARK   34  A    between atoms: _81  and  _82
REMARK   35  A    between atoms: _87  and  _89
REMARK   36  A    between atoms: _89  and  _90
REMARK   37  A    between atoms: _89  and  _92
REMARK   38  A    between atoms: _92  and  _93
REMARK   39  A    between atoms: _96  and  _98
REMARK   40  A    between atoms: _98  and  _99
REMARK   41  A    between atoms: _98  and  _101
REMARK   42  A    between atoms: _101  and  _102
REMARK   43  A    between atoms: _102  and  _137
REMARK   44  A    between atoms: _103  and  _105
REMARK   45  A    between atoms: _105  and  _106
REMARK   46  A    between atoms: _108  and  _110
REMARK   47  A    between atoms: _110  and  _111
REMARK   48  A    between atoms: _114  and  _116
REMARK   49  A    between atoms: _116  and  _117
REMARK   50  A    between atoms: _120  and  _122
REMARK   51  A    between atoms: _122  and  _123
REMARK   52  A    between atoms: _122  and  _125
REMARK   53  A    between atoms: _125  and  _126
REMARK   54  A    between atoms: _131  and  _133
REMARK   55  A    between atoms: _133  and  _134
REMARK   56  A    between atoms: _133  and  _136
REMARK   57  A    between atoms: _136  and  _137
REMARK   58  A    between atoms: _138  and  _140
REMARK   59  A    between atoms: _140  and  _141
REMARK   60  A    between atoms: _140  and  _143
REMARK   61  A    between atoms: _143  and  _144
REMARK   62  A    between atoms: _150  and  _152
REMARK   63  A    between atoms: _152  and  _153
REMARK   64  A    between atoms: _152  and  _155
REMARK   65  A    between atoms: _155  and  _156
REMARK   66  A    between atoms: _161  and  _162
REMARK   67  A    between atoms: _164  and  _166
REMARK   68  A    between atoms: _166  and  _167
REMARK   69  A    between atoms: _169  and  _171
REMARK   70  A    between atoms: _171  and  _172
REMARK   71  A    between atoms: _171  and  _174
REMARK   72  A    between atoms: _177  and  _179
REMARK   73  A    between atoms: _179  and  _180
REMARK   74  A    between atoms: _183  and  _185
REMARK   75  A    between atoms: _185  and  _186
REMARK   76  A    between atoms: _185  and  _188
REMARK   77  A    between atoms: _188  and  _189
REMARK   78  A    between atoms: _192  and  _194
REMARK   79  A    between atoms: _194  and  _195
REMARK   80  A    between atoms: _194  and  _197
REMARK   81  A    between atoms: _200  and  _202
REMARK   82  A    between atoms: _202  and  _203
REMARK   83  A    between atoms: _202  and  _205
REMARK   84  A    between atoms: _205  and  _206
REMARK   85  A    between atoms: _216  and  _218
REMARK   86  A    between atoms: _218  and  _219
REMARK   87  A    between atoms: _221  and  _223
REMARK   88  A    between atoms: _223  and  _224
REMARK   89  A    between atoms: _223  and  _226
REMARK   90  A    between atoms: _226  and  _227
REMARK   91  A    between atoms: _232  and  _233
REMARK   92  A    between atoms: _235  and  _237
REMARK   93  A    between atoms: _237  and  _238
REMARK   94  A    between atoms: _237  and  _240
REMARK   95  A    between atoms: _240  and  _241
REMARK   96  A    between atoms: _241  and  _242
REMARK   97  A    between atoms: _242  and  _243
REMARK   98  A    between atoms: _243  and  _244
REMARK   99  A    between atoms: _248  and  _250
REMARK  100  A    between atoms: _250  and  _251
REMARK  101  A    between atoms: _250  and  _253
REMARK  102  A    between atoms: _253  and  _254
REMARK  103  A    between atoms: _257  and  _259
REMARK  104  A    between atoms: _259  and  _260
REMARK  105  A    between atoms: _259  and  _262
REMARK  106  A    between atoms: _262  and  _263
REMARK  107  A    between atoms: _266  and  _268
REMARK  108  A    between atoms: _268  and  _269
REMARK  109  A    between atoms: _268  and  _271
REMARK  110  A    between atoms: _271  and  _272
REMARK  111  A    between atoms: _272  and  _273
REMARK  112  A    between atoms: _273  and  _274
REMARK  113  A    between atoms: _274  and  _275
REMARK  114  A    between atoms: _279  and  _281
REMARK  115  A    between atoms: _281  and  _282
REMARK  116  A    between atoms: _281  and  _284
REMARK  117  A    between atoms: _284  and  _285
REMARK  118  A    between atoms: _288  and  _290
REMARK  119  A    between atoms: _290  and  _291
REMARK  120  A    between atoms: _290  and  _293
REMARK  121  A    between atoms: _293  and  _294
REMARK  122  A    between atoms: _294  and  _295
REMARK  123  A    between atoms: _300  and  _302
REMARK  124  A    between atoms: _302  and  _303
REMARK  125  A    between atoms: _302  and  _305
REMARK  126  A    between atoms: _305  and  _306
REMARK  127  A    between atoms: _311  and  _312
REMARK  128  A    between atoms: _314  and  _316
REMARK  129  A    between atoms: _316  and  _317
REMARK  130  A    between atoms: _316  and  _319
REMARK  131  A    between atoms: _319  and  _320
REMARK  132  A    between atoms: _323  and  _325
REMARK  133  A    between atoms: _325  and  _326
REMARK  134  A    between atoms: _325  and  _328
REMARK  135  A    between atoms: _330  and  _332
REMARK  136  A    between atoms: _332  and  _333
REMARK  137  A    between atoms: _336  and  _338
REMARK  138  A    between atoms: _338  and  _339
REMARK  139  A    between atoms: _338  and  _341
REMARK  140  A    between atoms: _341  and  _342
REMARK  141  A    between atoms: _345  and  _347
REMARK  142  A    between atoms: _347  and  _348
REMARK  143  A    between atoms: _351  and  _353
REMARK  144  A    between atoms: _353  and  _354
REMARK  145  A    between atoms: _353  and  _356
REMARK  146  A    between atoms: _356  and  _357
REMARK  147  A    between atoms: _357  and  _480
REMARK  148  A    between atoms: _358  and  _360
REMARK  149  A    between atoms: _360  and  _361
REMARK  150  A    between atoms: _360  and  _363
REMARK  151  A    between atoms: _363  and  _364
REMARK  152  A    between atoms: _364  and  _365
REMARK  153  A    between atoms: _365  and  _366
REMARK  154  A    between atoms: _366  and  _367
REMARK  155  A    between atoms: _371  and  _373
REMARK  156  A    between atoms: _373  and  _374
REMARK  157  A    between atoms: _376  and  _378
REMARK  158  A    between atoms: _378  and  _379
REMARK  159  A    between atoms: _378  and  _381
REMARK  160  A    between atoms: _381  and  _382
REMARK  161  A    between atoms: _385  and  _387
REMARK  162  A    between atoms: _387  and  _388
REMARK  163  A    between atoms: _387  and  _390
REMARK  164  A    between atoms: _390  and  _391
REMARK  165  A    between atoms: _393  and  _395
REMARK  166  A    between atoms: _395  and  _396
REMARK  167  A    between atoms: _398  and  _400
REMARK  168  A    between atoms: _400  and  _401
REMARK  169  A    between atoms: _403  and  _405
REMARK  170  A    between atoms: _405  and  _406
REMARK  171  A    between atoms: _405  and  _408
REMARK  172  A    between atoms: _408  and  _409
REMARK  173  A    between atoms: _412  and  _414
REMARK  174  A    between atoms: _414  and  _415
REMARK  175  A    between atoms: _414  and  _417
REMARK  176  A    between atoms: _417  and  _418
REMARK  177  A    between atoms: _421  and  _423
REMARK  178  A    between atoms: _423  and  _424
REMARK  179  A    between atoms: _423  and  _426
REMARK  180  A    between atoms: _426  and  _427
REMARK  181  A    between atoms: _430  and  _432
REMARK  182  A    between atoms: _432  and  _433
REMARK  183  A    between atoms: _432  and  _435
REMARK  184  A    between atoms: _435  and  _436
REMARK  185  A    between atoms: _438  and  _440
REMARK  186  A    between atoms: _440  and  _441
REMARK  187  A    between atoms: _440  and  _443
REMARK  188  A    between atoms: _443  and  _444
REMARK  189  A    between atoms: _454  and  _456
REMARK  190  A    between atoms: _456  and  _457
REMARK  191  A    between atoms: _459  and  _461
REMARK  192  A    between atoms: _461  and  _462
REMARK  193  A    between atoms: _461  and  _464
REMARK  194  A    between atoms: _464  and  _465
REMARK  195  A    between atoms: _465  and  _466
REMARK  196  A    between atoms: _469  and  _471
REMARK  197  A    between atoms: _471  and  _472
REMARK  198  A    between atoms: _474  and  _476
REMARK  199  A    between atoms: _476  and  _477
REMARK  200  A    between atoms: _476  and  _479
REMARK  201  A    between atoms: _479  and  _480
REMARK  202  A    between atoms: _481  and  _483
REMARK  203  A    between atoms: _483  and  _484
REMARK  204  A    between atoms: _487  and  _489
REMARK  205  A    between atoms: _489  and  _490
REMARK  206  A    between atoms: _489  and  _492
REMARK  207  A    between atoms: _492  and  _493
REMARK  208  A    between atoms: _493  and  _494
REMARK  209  A    between atoms: _499  and  _501
REMARK  210  A    between atoms: _501  and  _502
REMARK  211  A    between atoms: _501  and  _504
REMARK  212  A    between atoms: _504  and  _505
REMARK  213  A    between atoms: _505  and  _506
REMARK  214  A    between atoms: _506  and  _507
REMARK  215  A    between atoms: _517  and  _518
REMARK  216  A    between atoms: _523  and  _525
REMARK  217  A    between atoms: _525  and  _526
REMARK  218  A    between atoms: _528  and  _530
REMARK  219  A    between atoms: _530  and  _531
REMARK  220  A    between atoms: _530  and  _533
REMARK  221  A    between atoms: _536  and  _538
REMARK  222  A    between atoms: _538  and  _539
REMARK  223  A    between atoms: _538  and  _541
REMARK  224  A    between atoms: _541  and  _542
REMARK  225  A    between atoms: _547  and  _548
REMARK  226  A    between atoms: _550  and  _552
REMARK  227  A    between atoms: _552  and  _553
REMARK  228  A    between atoms: _552  and  _555
REMARK  229  A    between atoms: _555  and  _556
REMARK                            x       y       z     vdW  Elec       q    Type
REMARK                         _______ _______ _______ _____ _____    ______ ____
ROOT
ATOM      1  O   HOH     1      36.743 -17.455  24.534  0.00  0.00    +0.000 OA
ENDROOT
TORSDOF 0
REMARK  Name = ../refined-set-2016/4x6n/4x6n_pocket.pdb
REMARK  229 active torsions:
REMARK  status: ('A' for Active; 'I' for Inactive)
REMARK    1  A    between atoms: _1  and  _5
REMARK    2  A    between atoms: _5  and  _6
REMARK    3  A    between atoms: _5  and  _8
REMARK    4  A    between atoms: _8  and  _9
REMARK    5  A    between atoms: _12  and  _14
REMARK    6  A    between atoms: _14  and  _15
REMARK    7  A    between atoms: _14  and  _17
REMARK    8  A    between atoms: _20  and  _22
REMARK    9  A    between atoms: _22  and  _23
REMARK   10  A    between atoms: _22  and  _25
REMARK   11  A    between atoms: _25  and  _26
REMARK   12  A    between atoms: _29  and  _31
REMARK   13  A    between atoms: _31  and  _32
REMARK   14  A    between atoms: _31  and  _34
REMARK   15  A    between atoms: _34  and  _35
REMARK   16  A    between atoms: _38  and  _40
REMARK   17  A    between atoms: _40  and  _41
REMARK   18  A    between atoms: _40  and  _43
REMARK   19  A    between atoms: _43  and  _44
REMARK   20  A    between atoms: _47  and  _49
REMARK   21  A    between atoms: _49  and  _50
REMARK   22  A    between atoms: _49  and  _52
REMARK   23  A    between atoms: _52  and  _53
REMARK   24  A    between atoms: _53  and  _54
REMARK   25  A    between atoms: _59  and  _61
REMARK   26  A    between atoms: _61  and  _62
REMARK   27  A    between atoms: _61  and  _64
REMARK   28  A    between atoms: _64  and  _65
REMARK   29  A    between atoms: _65  and  _66
REMARK   30  A    between atoms: _66  and  _67
REMARK   31  A    between atoms: _76  and  _78
REMARK   32  A    between atoms: _78  and  _79
REMARK   33  A    between atoms: _78  and  _81
REMARK   34  A    between atoms: _81  and  _82
REMARK   35  A    between atoms: _87  and  _89
REMARK   36  A    between atoms: _89  and  _90
REMARK   37  A    between atoms: _89  and  _92
REMARK   38  A    between atoms: _92  and  _93
REMARK   39  A    between atoms: _96  and  _98
REMARK   40  A    between atoms: _98  and  _99
REMARK   41  A    between atoms: _98  and  _101
REMARK   42  A    between atoms: _101  and  _102
REMARK   43  A    between atoms: _102  and  _137
REMARK   44  A    between atoms: _103  and  _105
REMARK   45  A    between atoms: _105  and  _106
REMARK   46  A    between atoms: _108  and  _110
REMARK   47  A    between atoms: _110  and  _111
REMARK   48  A    between atoms: _114  and  _116
REMARK   49  A    between atoms: _116  and  _117
REMARK   50  A    between atoms: _120  and  _122
REMARK   51  A    between atoms: _122  and  _123
REMARK   52  A    between atoms: _122  and  _125
REMARK   53  A    between atoms: _125  and  _126
REMARK   54  A    between atoms: _131  and  _133
REMARK   55  A    between atoms: _133  and  _134
REMARK   56  A    between atoms: _133  and  _136
REMARK   57  A    between atoms: _136  and  _137
REMARK   58  A    between atoms: _138  and  _140
REMARK   59  A    between atoms: _140  and  _141
REMARK   60  A    between atoms: _140  and  _143
REMARK   61  A    between atoms: _143  and  _144
REMARK   62  A    between atoms: _150  and  _152
REMARK   63  A    between atoms: _152  and  _153
REMARK   64  A    between atoms: _152  and  _155
REMARK   65  A    between atoms: _155  and  _156
REMARK   66  A    between atoms: _161  and  _162
REMARK   67  A    between atoms: _164  and  _166
REMARK   68  A    between atoms: _166  and  _167
REMARK   69  A    between atoms: _169  and  _171
REMARK   70  A    between atoms: _171  and  _172
REMARK   71  A    between atoms: _171  and  _174
REMARK   72  A    between atoms: _177  and  _179
REMARK   73  A    between atoms: _179  and  _180
REMARK   74  A    between atoms: _183  and  _185
REMARK   75  A    between atoms: _185  and  _186
REMARK   76  A    between atoms: _185  and  _188
REMARK   77  A    between atoms: _188  and  _189
REMARK   78  A    between atoms: _192  and  _194
REMARK   79  A    between atoms: _194  and  _195
REMARK   80  A    between atoms: _194  and  _197
REMARK   81  A    between atoms: _200  and  _202
REMARK   82  A    between atoms: _202  and  _203
REMARK   83  A    between atoms: _202  and  _205
REMARK   84  A    between atoms: _205  and  _206
REMARK   85  A    between atoms: _216  and  _218
REMARK   86  A    between atoms: _218  and  _219
REMARK   87  A    between atoms: _221  and  _223
REMARK   88  A    between atoms: _223  and  _224
REMARK   89  A    between atoms: _223  and  _226
REMARK   90  A    between atoms: _226  and  _227
REMARK   91  A    between atoms: _232  and  _233
REMARK   92  A    between atoms: _235  and  _237
REMARK   93  A    between atoms: _237  and  _238
REMARK   94  A    between atoms: _237  and  _240
REMARK   95  A    between atoms: _240  and  _241
REMARK   96  A    between atoms: _241  and  _242
REMARK   97  A    between atoms: _242  and  _243
REMARK   98  A    between atoms: _243  and  _244
REMARK   99  A    between atoms: _248  and  _250
REMARK  100  A    between atoms: _250  and  _251
REMARK  101  A    between atoms: _250  and  _253
REMARK  102  A    between atoms: _253  and  _254
REMARK  103  A    between atoms: _257  and  _259
REMARK  104  A    between atoms: _259  and  _260
REMARK  105  A    between atoms: _259  and  _262
REMARK  106  A    between atoms: _262  and  _263
REMARK  107  A    between atoms: _266  and  _268
REMARK  108  A    between atoms: _268  and  _269
REMARK  109  A    between atoms: _268  and  _271
REMARK  110  A    between atoms: _271  and  _272
REMARK  111  A    between atoms: _272  and  _273
REMARK  112  A    between atoms: _273  and  _274
REMARK  113  A    between atoms: _274  and  _275
REMARK  114  A    between atoms: _279  and  _281
REMARK  115  A    between atoms: _281  and  _282
REMARK  116  A    between atoms: _281  and  _284
REMARK  117  A    between atoms: _284  and  _285
REMARK  118  A    between atoms: _288  and  _290
REMARK  119  A    between atoms: _290  and  _291
REMARK  120  A    between atoms: _290  and  _293
REMARK  121  A    between atoms: _293  and  _294
REMARK  122  A    between atoms: _294  and  _295
REMARK  123  A    between atoms: _300  and  _302
REMARK  124  A    between atoms: _302  and  _303
REMARK  125  A    between atoms: _302  and  _305
REMARK  126  A    between atoms: _305  and  _306
REMARK  127  A    between atoms: _311  and  _312
REMARK  128  A    between atoms: _314  and  _316
REMARK  129  A    between atoms: _316  and  _317
REMARK  130  A    between atoms: _316  and  _319
REMARK  131  A    between atoms: _319  and  _320
REMARK  132  A    between atoms: _323  and  _325
REMARK  133  A    between atoms: _325  and  _326
REMARK  134  A    between atoms: _325  and  _328
REMARK  135  A    between atoms: _330  and  _332
REMARK  136  A    between atoms: _332  and  _333
REMARK  137  A    between atoms: _336  and  _338
REMARK  138  A    between atoms: _338  and  _339
REMARK  139  A    between atoms: _338  and  _341
REMARK  140  A    between atoms: _341  and  _342
REMARK  141  A    between atoms: _345  and  _347
REMARK  142  A    between atoms: _347  and  _348
REMARK  143  A    between atoms: _351  and  _353
REMARK  144  A    between atoms: _353  and  _354
REMARK  145  A    between atoms: _353  and  _356
REMARK  146  A    between atoms: _356  and  _357
REMARK  147  A    between atoms: _357  and  _480
REMARK  148  A    between atoms: _358  and  _360
REMARK  149  A    between atoms: _360  and  _361
REMARK  150  A    between atoms: _360  and  _363
REMARK  151  A    between atoms: _363  and  _364
REMARK  152  A    between atoms: _364  and  _365
REMARK  153  A    between atoms: _365  and  _366
REMARK  154  A    between atoms: _366  and  _367
REMARK  155  A    between atoms: _371  and  _373
REMARK  156  A    between atoms: _373  and  _374
REMARK  157  A    between atoms: _376  and  _378
REMARK  158  A    between atoms: _378  and  _379
REMARK  159  A    between atoms: _378  and  _381
REMARK  160  A    between atoms: _381  and  _382
REMARK  161  A    between atoms: _385  and  _387
REMARK  162  A    between atoms: _387  and  _388
REMARK  163  A    between atoms: _387  and  _390
REMARK  164  A    between atoms: _390  and  _391
REMARK  165  A    between atoms: _393  and  _395
REMARK  166  A    between atoms: _395  and  _396
REMARK  167  A    between atoms: _398  and  _400
REMARK  168  A    between atoms: _400  and  _401
REMARK  169  A    between atoms: _403  and  _405
REMARK  170  A    between atoms: _405  and  _406
REMARK  171  A    between atoms: _405  and  _408
REMARK  172  A    between atoms: _408  and  _409
REMARK  173  A    between atoms: _412  and  _414
REMARK  174  A    between atoms: _414  and  _415
REMARK  175  A    between atoms: _414  and  _417
REMARK  176  A    between atoms: _417  and  _418
REMARK  177  A    between atoms: _421  and  _423
REMARK  178  A    between atoms: _423  and  _424
REMARK  179  A    between atoms: _423  and  _426
REMARK  180  A    between atoms: _426  and  _427
REMARK  181  A    between atoms: _430  and  _432
REMARK  182  A    between atoms: _432  and  _433
REMARK  183  A    between atoms: _432  and  _435
REMARK  184  A    between atoms: _435  and  _436
REMARK  185  A    between atoms: _438  and  _440
REMARK  186  A    between atoms: _440  and  _441
REMARK  187  A    between atoms: _440  and  _443
REMARK  188  A    between atoms: _443  and  _444
REMARK  189  A    between atoms: _454  and  _456
REMARK  190  A    between atoms: _456  and  _457
REMARK  191  A    between atoms: _459  and  _461
REMARK  192  A    between atoms: _461  and  _462
REMARK  193  A    between atoms: _461  and  _464
REMARK  194  A    between atoms: _464  and  _465
REMARK  195  A    between atoms: _465  and  _466
REMARK  196  A    between atoms: _469  and  _471
REMARK  197  A    between atoms: _471  and  _472
REMARK  198  A    between atoms: _474  and  _476
REMARK  199  A    between atoms: _476  and  _477
REMARK  200  A    between atoms: _476  and  _479
REMARK  201  A    between atoms: _479  and  _480
REMARK  202  A    between atoms: _481  and  _483
REMARK  203  A    between atoms: _483  and  _484
REMARK  204  A    between atoms: _487  and  _489
REMARK  205  A    between atoms: _489  and  _490
REMARK  206  A    between atoms: _489  and  _492
REMARK  207  A    between atoms: _492  and  _493
REMARK  208  A    between atoms: _493  and  _494
REMARK  209  A    between atoms: _499  and  _501
REMARK  210  A    between atoms: _501  and  _502
REMARK  211  A    between atoms: _501  and  _504
REMARK  212  A    between atoms: _504  and  _505
REMARK  213  A    between atoms: _505  and  _506
REMARK  214  A    between atoms: _506  and  _507
REMARK  215  A    between atoms: _517  and  _518
REMARK  216  A    between atoms: _523  and  _525
REMARK  217  A    between atoms: _525  and  _526
REMARK  218  A    between atoms: _528  and  _530
REMARK  219  A    between atoms: _530  and  _531
REMARK  220  A    between atoms: _530  and  _533
REMARK  221  A    between atoms: _536  and  _538
REMARK  222  A    between atoms: _538  and  _539
REMARK  223  A    between atoms: _538  and  _541
REMARK  224  A    between atoms: _541  and  _542
REMARK  225  A    between atoms: _547  and  _548
REMARK  226  A    between atoms: _550  and  _552
REMARK  227  A    between atoms: _552  and  _553
REMARK  228  A    between atoms: _552  and  _555
REMARK  229  A    between atoms: _555  and  _556
REMARK                            x       y       z     vdW  Elec       q    Type
REMARK                         _______ _______ _______ _____ _____    ______ ____
ROOT
ATOM      1  O   HOH     1      36.079 -20.672  26.126  0.00  0.00    +0.000 OA
ENDROOT
TORSDOF 0
REMARK  Name = ../refined-set-2016/4x6n/4x6n_pocket.pdb
REMARK  229 active torsions:
REMARK  status: ('A' for Active; 'I' for Inactive)
REMARK    1  A    between atoms: _1  and  _5
REMARK    2  A    between atoms: _5  and  _6
REMARK    3  A    between atoms: _5  and  _8
REMARK    4  A    between atoms: _8  and  _9
REMARK    5  A    between atoms: _12  and  _14
REMARK    6  A    between atoms: _14  and  _15
REMARK    7  A    between atoms: _14  and  _17
REMARK    8  A    between atoms: _20  and  _22
REMARK    9  A    between atoms: _22  and  _23
REMARK   10  A    between atoms: _22  and  _25
REMARK   11  A    between atoms: _25  and  _26
REMARK   12  A    between atoms: _29  and  _31
REMARK   13  A    between atoms: _31  and  _32
REMARK   14  A    between atoms: _31  and  _34
REMARK   15  A    between atoms: _34  and  _35
REMARK   16  A    between atoms: _38  and  _40
REMARK   17  A    between atoms: _40  and  _41
REMARK   18  A    between atoms: _40  and  _43
REMARK   19  A    between atoms: _43  and  _44
REMARK   20  A    between atoms: _47  and  _49
REMARK   21  A    between atoms: _49  and  _50
REMARK   22  A    between atoms: _49  and  _52
REMARK   23  A    between atoms: _52  and  _53
REMARK   24  A    between atoms: _53  and  _54
REMARK   25  A    between atoms: _59  and  _61
REMARK   26  A    between atoms: _61  and  _62
REMARK   27  A    between atoms: _61  and  _64
REMARK   28  A    between atoms: _64  and  _65
REMARK   29  A    between atoms: _65  and  _66
REMARK   30  A    between atoms: _66  and  _67
REMARK   31  A    between atoms: _76  and  _78
REMARK   32  A    between atoms: _78  and  _79
REMARK   33  A    between atoms: _78  and  _81
REMARK   34  A    between atoms: _81  and  _82
REMARK   35  A    between atoms: _87  and  _89
REMARK   36  A    between atoms: _89  and  _90
REMARK   37  A    between atoms: _89  and  _92
REMARK   38  A    between atoms: _92  and  _93
REMARK   39  A    between atoms: _96  and  _98
REMARK   40  A    between atoms: _98  and  _99
REMARK   41  A    between atoms: _98  and  _101
REMARK   42  A    between atoms: _101  and  _102
REMARK   43  A    between atoms: _102  and  _137
REMARK   44  A    between atoms: _103  and  _105
REMARK   45  A    between atoms: _105  and  _106
REMARK   46  A    between atoms: _108  and  _110
REMARK   47  A    between atoms: _110  and  _111
REMARK   48  A    between atoms: _114  and  _116
REMARK   49  A    between atoms: _116  and  _117
REMARK   50  A    between atoms: _120  and  _122
REMARK   51  A    between atoms: _122  and  _123
REMARK   52  A    between atoms: _122  and  _125
REMARK   53  A    between atoms: _125  and  _126
REMARK   54  A    between atoms: _131  and  _133
REMARK   55  A    between atoms: _133  and  _134
REMARK   56  A    between atoms: _133  and  _136
REMARK   57  A    between atoms: _136  and  _137
REMARK   58  A    between atoms: _138  and  _140
REMARK   59  A    between atoms: _140  and  _141
REMARK   60  A    between atoms: _140  and  _143
REMARK   61  A    between atoms: _143  and  _144
REMARK   62  A    between atoms: _150  and  _152
REMARK   63  A    between atoms: _152  and  _153
REMARK   64  A    between atoms: _152  and  _155
REMARK   65  A    between atoms: _155  and  _156
REMARK   66  A    between atoms: _161  and  _162
REMARK   67  A    between atoms: _164  and  _166
REMARK   68  A    between atoms: _166  and  _167
REMARK   69  A    between atoms: _169  and  _171
REMARK   70  A    between atoms: _171  and  _172
REMARK   71  A    between atoms: _171  and  _174
REMARK   72  A    between atoms: _177  and  _179
REMARK   73  A    between atoms: _179  and  _180
REMARK   74  A    between atoms: _183  and  _185
REMARK   75  A    between atoms: _185  and  _186
REMARK   76  A    between atoms: _185  and  _188
REMARK   77  A    between atoms: _188  and  _189
REMARK   78  A    between atoms: _192  and  _194
REMARK   79  A    between atoms: _194  and  _195
REMARK   80  A    between atoms: _194  and  _197
REMARK   81  A    between atoms: _200  and  _202
REMARK   82  A    between atoms: _202  and  _203
REMARK   83  A    between atoms: _202  and  _205
REMARK   84  A    between atoms: _205  and  _206
REMARK   85  A    between atoms: _216  and  _218
REMARK   86  A    between atoms: _218  and  _219
REMARK   87  A    between atoms: _221  and  _223
REMARK   88  A    between atoms: _223  and  _224
REMARK   89  A    between atoms: _223  and  _226
REMARK   90  A    between atoms: _226  and  _227
REMARK   91  A    between atoms: _232  and  _233
REMARK   92  A    between atoms: _235  and  _237
REMARK   93  A    between atoms: _237  and  _238
REMARK   94  A    between atoms: _237  and  _240
REMARK   95  A    between atoms: _240  and  _241
REMARK   96  A    between atoms: _241  and  _242
REMARK   97  A    between atoms: _242  and  _243
REMARK   98  A    between atoms: _243  and  _244
REMARK   99  A    between atoms: _248  and  _250
REMARK  100  A    between atoms: _250  and  _251
REMARK  101  A    between atoms: _250  and  _253
REMARK  102  A    between atoms: _253  and  _254
REMARK  103  A    between atoms: _257  and  _259
REMARK  104  A    between atoms: _259  and  _260
REMARK  105  A    between atoms: _259  and  _262
REMARK  106  A    between atoms: _262  and  _263
REMARK  107  A    between atoms: _266  and  _268
REMARK  108  A    between atoms: _268  and  _269
REMARK  109  A    between atoms: _268  and  _271
REMARK  110  A    between atoms: _271  and  _272
REMARK  111  A    between atoms: _272  and  _273
REMARK  112  A    between atoms: _273  and  _274
REMARK  113  A    between atoms: _274  and  _275
REMARK  114  A    between atoms: _279  and  _281
REMARK  115  A    between atoms: _281  and  _282
REMARK  116  A    between atoms: _281  and  _284
REMARK  117  A    between atoms: _284  and  _285
REMARK  118  A    between atoms: _288  and  _290
REMARK  119  A    between atoms: _290  and  _291
REMARK  120  A    between atoms: _290  and  _293
REMARK  121  A    between atoms: _293  and  _294
REMARK  122  A    between atoms: _294  and  _295
REMARK  123  A    between atoms: _300  and  _302
REMARK  124  A    between atoms: _302  and  _303
REMARK  125  A    between atoms: _302  and  _305
REMARK  126  A    between atoms: _305  and  _306
REMARK  127  A    between atoms: _311  and  _312
REMARK  128  A    between atoms: _314  and  _316
REMARK  129  A    between atoms: _316  and  _317
REMARK  130  A    between atoms: _316  and  _319
REMARK  131  A    between atoms: _319  and  _320
REMARK  132  A    between atoms: _323  and  _325
REMARK  133  A    between atoms: _325  and  _326
REMARK  134  A    between atoms: _325  and  _328
REMARK  135  A    between atoms: _330  and  _332
REMARK  136  A    between atoms: _332  and  _333
REMARK  137  A    between atoms: _336  and  _338
REMARK  138  A    between atoms: _338  and  _339
REMARK  139  A    between atoms: _338  and  _341
REMARK  140  A    between atoms: _341  and  _342
REMARK  141  A    between atoms: _345  and  _347
REMARK  142  A    between atoms: _347  and  _348
REMARK  143  A    between atoms: _351  and  _353
REMARK  144  A    between atoms: _353  and  _354
REMARK  145  A    between atoms: _353  and  _356
REMARK  146  A    between atoms: _356  and  _357
REMARK  147  A    between atoms: _357  and  _480
REMARK  148  A    between atoms: _358  and  _360
REMARK  149  A    between atoms: _360  and  _361
REMARK  150  A    between atoms: _360  and  _363
REMARK  151  A    between atoms: _363  and  _364
REMARK  152  A    between atoms: _364  and  _365
REMARK  153  A    between atoms: _365  and  _366
REMARK  154  A    between atoms: _366  and  _367
REMARK  155  A    between atoms: _371  and  _373
REMARK  156  A    between atoms: _373  and  _374
REMARK  157  A    between atoms: _376  and  _378
REMARK  158  A    between atoms: _378  and  _379
REMARK  159  A    between atoms: _378  and  _381
REMARK  160  A    between atoms: _381  and  _382
REMARK  161  A    between atoms: _385  and  _387
REMARK  162  A    between atoms: _387  and  _388
REMARK  163  A    between atoms: _387  and  _390
REMARK  164  A    between atoms: _390  and  _391
REMARK  165  A    between atoms: _393  and  _395
REMARK  166  A    between atoms: _395  and  _396
REMARK  167  A    between atoms: _398  and  _400
REMARK  168  A    between atoms: _400  and  _401
REMARK  169  A    between atoms: _403  and  _405
REMARK  170  A    between atoms: _405  and  _406
REMARK  171  A    between atoms: _405  and  _408
REMARK  172  A    between atoms: _408  and  _409
REMARK  173  A    between atoms: _412  and  _414
REMARK  174  A    between atoms: _414  and  _415
REMARK  175  A    between atoms: _414  and  _417
REMARK  176  A    between atoms: _417  and  _418
REMARK  177  A    between atoms: _421  and  _423
REMARK  178  A    between atoms: _423  and  _424
REMARK  179  A    between atoms: _423  and  _426
REMARK  180  A    between atoms: _426  and  _427
REMARK  181  A    between atoms: _430  and  _432
REMARK  182  A    between atoms: _432  and  _433
REMARK  183  A    between atoms: _432  and  _435
REMARK  184  A    between atoms: _435  and  _436
REMARK  185  A    between atoms: _438  and  _440
REMARK  186  A    between atoms: _440  and  _441
REMARK  187  A    between atoms: _440  and  _443
REMARK  188  A    between atoms: _443  and  _444
REMARK  189  A    between atoms: _454  and  _456
REMARK  190  A    between atoms: _456  and  _457
REMARK  191  A    between atoms: _459  and  _461
REMARK  192  A    between atoms: _461  and  _462
REMARK  193  A    between atoms: _461  and  _464
REMARK  194  A    between atoms: _464  and  _465
REMARK  195  A    between atoms: _465  and  _466
REMARK  196  A    between atoms: _469  and  _471
REMARK  197  A    between atoms: _471  and  _472
REMARK  198  A    between atoms: _474  and  _476
REMARK  199  A    between atoms: _476  and  _477
REMARK  200  A    between atoms: _476  and  _479
REMARK  201  A    between atoms: _479  and  _480
REMARK  202  A    between atoms: _481  and  _483
REMARK  203  A    between atoms: _483  and  _484
REMARK  204  A    between atoms: _487  and  _489
REMARK  205  A    between atoms: _489  and  _490
REMARK  206  A    between atoms: _489  and  _492
REMARK  207  A    between atoms: _492  and  _493
REMARK  208  A    between atoms: _493  and  _494
REMARK  209  A    between atoms: _499  and  _501
REMARK  210  A    between atoms: _501  and  _502
REMARK  211  A    between atoms: _501  and  _504
REMARK  212  A    between atoms: _504  and  _505
REMARK  213  A    between atoms: _505  and  _506
REMARK  214  A    between atoms: _506  and  _507
REMARK  215  A    between atoms: _517  and  _518
REMARK  216  A    between atoms: _523  and  _525
REMARK  217  A    between atoms: _525  and  _526
REMARK  218  A    between atoms: _528  and  _530
REMARK  219  A    between atoms: _530  and  _531
REMARK  220  A    between atoms: _530  and  _533
REMARK  221  A    between atoms: _536  and  _538
REMARK  222  A    between atoms: _538  and  _539
REMARK  223  A    between atoms: _538  and  _541
REMARK  224  A    between atoms: _541  and  _542
REMARK  225  A    between atoms: _547  and  _548
REMARK  226  A    between atoms: _550  and  _552
REMARK  227  A    between atoms: _552  and  _553
REMARK  228  A    between atoms: _552  and  _555
REMARK  229  A    between atoms: _555  and  _556
REMARK                            x       y       z     vdW  Elec       q    Type
REMARK                         _______ _______ _______ _____ _____    ______ ____
ROOT
ATOM      1  O   HOH     1      34.805  -6.362  26.212  0.00  0.00    +0.000 OA
ENDROOT
TORSDOF 0
REMARK  Name = ../refined-set-2016/4x6n/4x6n_pocket.pdb
REMARK  229 active torsions:
REMARK  status: ('A' for Active; 'I' for Inactive)
REMARK    1  A    between atoms: _1  and  _5
REMARK    2  A    between atoms: _5  and  _6
REMARK    3  A    between atoms: _5  and  _8
REMARK    4  A    between atoms: _8  and  _9
REMARK    5  A    between atoms: _12  and  _14
REMARK    6  A    between atoms: _14  and  _15
REMARK    7  A    between atoms: _14  and  _17
REMARK    8  A    between atoms: _20  and  _22
REMARK    9  A    between atoms: _22  and  _23
REMARK   10  A    between atoms: _22  and  _25
REMARK   11  A    between atoms: _25  and  _26
REMARK   12  A    between atoms: _29  and  _31
REMARK   13  A    between atoms: _31  and  _32
REMARK   14  A    between atoms: _31  and  _34
REMARK   15  A    between atoms: _34  and  _35
REMARK   16  A    between atoms: _38  and  _40
REMARK   17  A    between atoms: _40  and  _41
REMARK   18  A    between atoms: _40  and  _43
REMARK   19  A    between atoms: _43  and  _44
REMARK   20  A    between atoms: _47  and  _49
REMARK   21  A    between atoms: _49  and  _50
REMARK   22  A    between atoms: _49  and  _52
REMARK   23  A    between atoms: _52  and  _53
REMARK   24  A    between atoms: _53  and  _54
REMARK   25  A    between atoms: _59  and  _61
REMARK   26  A    between atoms: _61  and  _62
REMARK   27  A    between atoms: _61  and  _64
REMARK   28  A    between atoms: _64  and  _65
REMARK   29  A    between atoms: _65  and  _66
REMARK   30  A    between atoms: _66  and  _67
REMARK   31  A    between atoms: _76  and  _78
REMARK   32  A    between atoms: _78  and  _79
REMARK   33  A    between atoms: _78  and  _81
REMARK   34  A    between atoms: _81  and  _82
REMARK   35  A    between atoms: _87  and  _89
REMARK   36  A    between atoms: _89  and  _90
REMARK   37  A    between atoms: _89  and  _92
REMARK   38  A    between atoms: _92  and  _93
REMARK   39  A    between atoms: _96  and  _98
REMARK   40  A    between atoms: _98  and  _99
REMARK   41  A    between atoms: _98  and  _101
REMARK   42  A    between atoms: _101  and  _102
REMARK   43  A    between atoms: _102  and  _137
REMARK   44  A    between atoms: _103  and  _105
REMARK   45  A    between atoms: _105  and  _106
REMARK   46  A    between atoms: _108  and  _110
REMARK   47  A    between atoms: _110  and  _111
REMARK   48  A    between atoms: _114  and  _116
REMARK   49  A    between atoms: _116  and  _117
REMARK   50  A    between atoms: _120  and  _122
REMARK   51  A    between atoms: _122  and  _123
REMARK   52  A    between atoms: _122  and  _125
REMARK   53  A    between atoms: _125  and  _126
REMARK   54  A    between atoms: _131  and  _133
REMARK   55  A    between atoms: _133  and  _134
REMARK   56  A    between atoms: _133  and  _136
REMARK   57  A    between atoms: _136  and  _137
REMARK   58  A    between atoms: _138  and  _140
REMARK   59  A    between atoms: _140  and  _141
REMARK   60  A    between atoms: _140  and  _143
REMARK   61  A    between atoms: _143  and  _144
REMARK   62  A    between atoms: _150  and  _152
REMARK   63  A    between atoms: _152  and  _153
REMARK   64  A    between atoms: _152  and  _155
REMARK   65  A    between atoms: _155  and  _156
REMARK   66  A    between atoms: _161  and  _162
REMARK   67  A    between atoms: _164  and  _166
REMARK   68  A    between atoms: _166  and  _167
REMARK   69  A    between atoms: _169  and  _171
REMARK   70  A    between atoms: _171  and  _172
REMARK   71  A    between atoms: _171  and  _174
REMARK   72  A    between atoms: _177  and  _179
REMARK   73  A    between atoms: _179  and  _180
REMARK   74  A    between atoms: _183  and  _185
REMARK   75  A    between atoms: _185  and  _186
REMARK   76  A    between atoms: _185  and  _188
REMARK   77  A    between atoms: _188  and  _189
REMARK   78  A    between atoms: _192  and  _194
REMARK   79  A    between atoms: _194  and  _195
REMARK   80  A    between atoms: _194  and  _197
REMARK   81  A    between atoms: _200  and  _202
REMARK   82  A    between atoms: _202  and  _203
REMARK   83  A    between atoms: _202  and  _205
REMARK   84  A    between atoms: _205  and  _206
REMARK   85  A    between atoms: _216  and  _218
REMARK   86  A    between atoms: _218  and  _219
REMARK   87  A    between atoms: _221  and  _223
REMARK   88  A    between atoms: _223  and  _224
REMARK   89  A    between atoms: _223  and  _226
REMARK   90  A    between atoms: _226  and  _227
REMARK   91  A    between atoms: _232  and  _233
REMARK   92  A    between atoms: _235  and  _237
REMARK   93  A    between atoms: _237  and  _238
REMARK   94  A    between atoms: _237  and  _240
REMARK   95  A    between atoms: _240  and  _241
REMARK   96  A    between atoms: _241  and  _242
REMARK   97  A    between atoms: _242  and  _243
REMARK   98  A    between atoms: _243  and  _244
REMARK   99  A    between atoms: _248  and  _250
REMARK  100  A    between atoms: _250  and  _251
REMARK  101  A    between atoms: _250  and  _253
REMARK  102  A    between atoms: _253  and  _254
REMARK  103  A    between atoms: _257  and  _259
REMARK  104  A    between atoms: _259  and  _260
REMARK  105  A    between atoms: _259  and  _262
REMARK  106  A    between atoms: _262  and  _263
REMARK  107  A    between atoms: _266  and  _268
REMARK  108  A    between atoms: _268  and  _269
REMARK  109  A    between atoms: _268  and  _271
REMARK  110  A    between atoms: _271  and  _272
REMARK  111  A    between atoms: _272  and  _273
REMARK  112  A    between atoms: _273  and  _274
REMARK  113  A    between atoms: _274  and  _275
REMARK  114  A    between atoms: _279  and  _281
REMARK  115  A    between atoms: _281  and  _282
REMARK  116  A    between atoms: _281  and  _284
REMARK  117  A    between atoms: _284  and  _285
REMARK  118  A    between atoms: _288  and  _290
REMARK  119  A    between atoms: _290  and  _291
REMARK  120  A    between atoms: _290  and  _293
REMARK  121  A    between atoms: _293  and  _294
REMARK  122  A    between atoms: _294  and  _295
REMARK  123  A    between atoms: _300  and  _302
REMARK  124  A    between atoms: _302  and  _303
REMARK  125  A    between atoms: _302  and  _305
REMARK  126  A    between atoms: _305  and  _306
REMARK  127  A    between atoms: _311  and  _312
REMARK  128  A    between atoms: _314  and  _316
REMARK  129  A    between atoms: _316  and  _317
REMARK  130  A    between atoms: _316  and  _319
REMARK  131  A    between atoms: _319  and  _320
REMARK  132  A    between atoms: _323  and  _325
REMARK  133  A    between atoms: _325  and  _326
REMARK  134  A    between atoms: _325  and  _328
REMARK  135  A    between atoms: _330  and  _332
REMARK  136  A    between atoms: _332  and  _333
REMARK  137  A    between atoms: _336  and  _338
REMARK  138  A    between atoms: _338  and  _339
REMARK  139  A    between atoms: _338  and  _341
REMARK  140  A    between atoms: _341  and  _342
REMARK  141  A    between atoms: _345  and  _347
REMARK  142  A    between atoms: _347  and  _348
REMARK  143  A    between atoms: _351  and  _353
REMARK  144  A    between atoms: _353  and  _354
REMARK  145  A    between atoms: _353  and  _356
REMARK  146  A    between atoms: _356  and  _357
REMARK  147  A    between atoms: _357  and  _480
REMARK  148  A    between atoms: _358  and  _360
REMARK  149  A    between atoms: _360  and  _361
REMARK  150  A    between atoms: _360  and  _363
REMARK  151  A    between atoms: _363  and  _364
REMARK  152  A    between atoms: _364  and  _365
REMARK  153  A    between atoms: _365  and  _366
REMARK  154  A    between atoms: _366  and  _367
REMARK  155  A    between atoms: _371  and  _373
REMARK  156  A    between atoms: _373  and  _374
REMARK  157  A    between atoms: _376  and  _378
REMARK  158  A    between atoms: _378  and  _379
REMARK  159  A    between atoms: _378  and  _381
REMARK  160  A    between atoms: _381  and  _382
REMARK  161  A    between atoms: _385  and  _387
REMARK  162  A    between atoms: _387  and  _388
REMARK  163  A    between atoms: _387  and  _390
REMARK  164  A    between atoms: _390  and  _391
REMARK  165  A    between atoms: _393  and  _395
REMARK  166  A    between atoms: _395  and  _396
REMARK  167  A    between atoms: _398  and  _400
REMARK  168  A    between atoms: _400  and  _401
REMARK  169  A    between atoms: _403  and  _405
REMARK  170  A    between atoms: _405  and  _406
REMARK  171  A    between atoms: _405  and  _408
REMARK  172  A    between atoms: _408  and  _409
REMARK  173  A    between atoms: _412  and  _414
REMARK  174  A    between atoms: _414  and  _415
REMARK  175  A    between atoms: _414  and  _417
REMARK  176  A    between atoms: _417  and  _418
REMARK  177  A    between atoms: _421  and  _423
REMARK  178  A    between atoms: _423  and  _424
REMARK  179  A    between atoms: _423  and  _426
REMARK  180  A    between atoms: _426  and  _427
REMARK  181  A    between atoms: _430  and  _432
REMARK  182  A    between atoms: _432  and  _433
REMARK  183  A    between atoms: _432  and  _435
REMARK  184  A    between atoms: _435  and  _436
REMARK  185  A    between atoms: _438  and  _440
REMARK  186  A    between atoms: _440  and  _441
REMARK  187  A    between atoms: _440  and  _443
REMARK  188  A    between atoms: _443  and  _444
REMARK  189  A    between atoms: _454  and  _456
REMARK  190  A    between atoms: _456  and  _457
REMARK  191  A    between atoms: _459  and  _461
REMARK  192  A    between atoms: _461  and  _462
REMARK  193  A    between atoms: _461  and  _464
REMARK  194  A    between atoms: _464  and  _465
REMARK  195  A    between atoms: _465  and  _466
REMARK  196  A    between atoms: _469  and  _471
REMARK  197  A    between atoms: _471  and  _472
REMARK  198  A    between atoms: _474  and  _476
REMARK  199  A    between atoms: _476  and  _477
REMARK  200  A    between atoms: _476  and  _479
REMARK  201  A    between atoms: _479  and  _480
REMARK  202  A    between atoms: _481  and  _483
REMARK  203  A    between atoms: _483  and  _484
REMARK  204  A    between atoms: _487  and  _489
REMARK  205  A    between atoms: _489  and  _490
REMARK  206  A    between atoms: _489  and  _492
REMARK  207  A    between atoms: _492  and  _493
REMARK  208  A    between atoms: _493  and  _494
REMARK  209  A    between atoms: _499  and  _501
REMARK  210  A    between atoms: _501  and  _502
REMARK  211  A    between atoms: _501  and  _504
REMARK  212  A    between atoms: _504  and  _505
REMARK  213  A    between atoms: _505  and  _506
REMARK  214  A    between atoms: _506  and  _507
REMARK  215  A    between atoms: _517  and  _518
REMARK  216  A    between atoms: _523  and  _525
REMARK  217  A    between atoms: _525  and  _526
REMARK  218  A    between atoms: _528  and  _530
REMARK  219  A    between atoms: _530  and  _531
REMARK  220  A    between atoms: _530  and  _533
REMARK  221  A    between atoms: _536  and  _538
REMARK  222  A    between atoms: _538  and  _539
REMARK  223  A    between atoms: _538  and  _541
REMARK  224  A    between atoms: _541  and  _542
REMARK  225  A    between atoms: _547  and  _548
REMARK  226  A    between atoms: _550  and  _552
REMARK  227  A    between atoms: _552  and  _553
REMARK  228  A    between atoms: _552  and  _555
REMARK  229  A    between atoms: _555  and  _556
REMARK                            x       y       z     vdW  Elec       q    Type
REMARK                         _______ _______ _______ _____ _____    ______ ____
ROOT
ATOM      1  O   HOH     1      49.836 -22.521  37.031  0.00  0.00    +0.000 OA
ENDROOT
TORSDOF 0
REMARK  Name = ../refined-set-2016/4x6n/4x6n_pocket.pdb
REMARK  229 active torsions:
REMARK  status: ('A' for Active; 'I' for Inactive)
REMARK    1  A    between atoms: _1  and  _5
REMARK    2  A    between atoms: _5  and  _6
REMARK    3  A    between atoms: _5  and  _8
REMARK    4  A    between atoms: _8  and  _9
REMARK    5  A    between atoms: _12  and  _14
REMARK    6  A    between atoms: _14  and  _15
REMARK    7  A    between atoms: _14  and  _17
REMARK    8  A    between atoms: _20  and  _22
REMARK    9  A    between atoms: _22  and  _23
REMARK   10  A    between atoms: _22  and  _25
REMARK   11  A    between atoms: _25  and  _26
REMARK   12  A    between atoms: _29  and  _31
REMARK   13  A    between atoms: _31  and  _32
REMARK   14  A    between atoms: _31  and  _34
REMARK   15  A    between atoms: _34  and  _35
REMARK   16  A    between atoms: _38  and  _40
REMARK   17  A    between atoms: _40  and  _41
REMARK   18  A    between atoms: _40  and  _43
REMARK   19  A    between atoms: _43  and  _44
REMARK   20  A    between atoms: _47  and  _49
REMARK   21  A    between atoms: _49  and  _50
REMARK   22  A    between atoms: _49  and  _52
REMARK   23  A    between atoms: _52  and  _53
REMARK   24  A    between atoms: _53  and  _54
REMARK   25  A    between atoms: _59  and  _61
REMARK   26  A    between atoms: _61  and  _62
REMARK   27  A    between atoms: _61  and  _64
REMARK   28  A    between atoms: _64  and  _65
REMARK   29  A    between atoms: _65  and  _66
REMARK   30  A    between atoms: _66  and  _67
REMARK   31  A    between atoms: _76  and  _78
REMARK   32  A    between atoms: _78  and  _79
REMARK   33  A    between atoms: _78  and  _81
REMARK   34  A    between atoms: _81  and  _82
REMARK   35  A    between atoms: _87  and  _89
REMARK   36  A    between atoms: _89  and  _90
REMARK   37  A    between atoms: _89  and  _92
REMARK   38  A    between atoms: _92  and  _93
REMARK   39  A    between atoms: _96  and  _98
REMARK   40  A    between atoms: _98  and  _99
REMARK   41  A    between atoms: _98  and  _101
REMARK   42  A    between atoms: _101  and  _102
REMARK   43  A    between atoms: _102  and  _137
REMARK   44  A    between atoms: _103  and  _105
REMARK   45  A    between atoms: _105  and  _106
REMARK   46  A    between atoms: _108  and  _110
REMARK   47  A    between atoms: _110  and  _111
REMARK   48  A    between atoms: _114  and  _116
REMARK   49  A    between atoms: _116  and  _117
REMARK   50  A    between atoms: _120  and  _122
REMARK   51  A    between atoms: _122  and  _123
REMARK   52  A    between atoms: _122  and  _125
REMARK   53  A    between atoms: _125  and  _126
REMARK   54  A    between atoms: _131  and  _133
REMARK   55  A    between atoms: _133  and  _134
REMARK   56  A    between atoms: _133  and  _136
REMARK   57  A    between atoms: _136  and  _137
REMARK   58  A    between atoms: _138  and  _140
REMARK   59  A    between atoms: _140  and  _141
REMARK   60  A    between atoms: _140  and  _143
REMARK   61  A    between atoms: _143  and  _144
REMARK   62  A    between atoms: _150  and  _152
REMARK   63  A    between atoms: _152  and  _153
REMARK   64  A    between atoms: _152  and  _155
REMARK   65  A    between atoms: _155  and  _156
REMARK   66  A    between atoms: _161  and  _162
REMARK   67  A    between atoms: _164  and  _166
REMARK   68  A    between atoms: _166  and  _167
REMARK   69  A    between atoms: _169  and  _171
REMARK   70  A    between atoms: _171  and  _172
REMARK   71  A    between atoms: _171  and  _174
REMARK   72  A    between atoms: _177  and  _179
REMARK   73  A    between atoms: _179  and  _180
REMARK   74  A    between atoms: _183  and  _185
REMARK   75  A    between atoms: _185  and  _186
REMARK   76  A    between atoms: _185  and  _188
REMARK   77  A    between atoms: _188  and  _189
REMARK   78  A    between atoms: _192  and  _194
REMARK   79  A    between atoms: _194  and  _195
REMARK   80  A    between atoms: _194  and  _197
REMARK   81  A    between atoms: _200  and  _202
REMARK   82  A    between atoms: _202  and  _203
REMARK   83  A    between atoms: _202  and  _205
REMARK   84  A    between atoms: _205  and  _206
REMARK   85  A    between atoms: _216  and  _218
REMARK   86  A    between atoms: _218  and  _219
REMARK   87  A    between atoms: _221  and  _223
REMARK   88  A    between atoms: _223  and  _224
REMARK   89  A    between atoms: _223  and  _226
REMARK   90  A    between atoms: _226  and  _227
REMARK   91  A    between atoms: _232  and  _233
REMARK   92  A    between atoms: _235  and  _237
REMARK   93  A    between atoms: _237  and  _238
REMARK   94  A    between atoms: _237  and  _240
REMARK   95  A    between atoms: _240  and  _241
REMARK   96  A    between atoms: _241  and  _242
REMARK   97  A    between atoms: _242  and  _243
REMARK   98  A    between atoms: _243  and  _244
REMARK   99  A    between atoms: _248  and  _250
REMARK  100  A    between atoms: _250  and  _251
REMARK  101  A    between atoms: _250  and  _253
REMARK  102  A    between atoms: _253  and  _254
REMARK  103  A    between atoms: _257  and  _259
REMARK  104  A    between atoms: _259  and  _260
REMARK  105  A    between atoms: _259  and  _262
REMARK  106  A    between atoms: _262  and  _263
REMARK  107  A    between atoms: _266  and  _268
REMARK  108  A    between atoms: _268  and  _269
REMARK  109  A    between atoms: _268  and  _271
REMARK  110  A    between atoms: _271  and  _272
REMARK  111  A    between atoms: _272  and  _273
REMARK  112  A    between atoms: _273  and  _274
REMARK  113  A    between atoms: _274  and  _275
REMARK  114  A    between atoms: _279  and  _281
REMARK  115  A    between atoms: _281  and  _282
REMARK  116  A    between atoms: _281  and  _284
REMARK  117  A    between atoms: _284  and  _285
REMARK  118  A    between atoms: _288  and  _290
REMARK  119  A    between atoms: _290  and  _291
REMARK  120  A    between atoms: _290  and  _293
REMARK  121  A    between atoms: _293  and  _294
REMARK  122  A    between atoms: _294  and  _295
REMARK  123  A    between atoms: _300  and  _302
REMARK  124  A    between atoms: _302  and  _303
REMARK  125  A    between atoms: _302  and  _305
REMARK  126  A    between atoms: _305  and  _306
REMARK  127  A    between atoms: _311  and  _312
REMARK  128  A    between atoms: _314  and  _316
REMARK  129  A    between atoms: _316  and  _317
REMARK  130  A    between atoms: _316  and  _319
REMARK  131  A    between atoms: _319  and  _320
REMARK  132  A    between atoms: _323  and  _325
REMARK  133  A    between atoms: _325  and  _326
REMARK  134  A    between atoms: _325  and  _328
REMARK  135  A    between atoms: _330  and  _332
REMARK  136  A    between atoms: _332  and  _333
REMARK  137  A    between atoms: _336  and  _338
REMARK  138  A    between atoms: _338  and  _339
REMARK  139  A    between atoms: _338  and  _341
REMARK  140  A    between atoms: _341  and  _342
REMARK  141  A    between atoms: _345  and  _347
REMARK  142  A    between atoms: _347  and  _348
REMARK  143  A    between atoms: _351  and  _353
REMARK  144  A    between atoms: _353  and  _354
REMARK  145  A    between atoms: _353  and  _356
REMARK  146  A    between atoms: _356  and  _357
REMARK  147  A    between atoms: _357  and  _480
REMARK  148  A    between atoms: _358  and  _360
REMARK  149  A    between atoms: _360  and  _361
REMARK  150  A    between atoms: _360  and  _363
REMARK  151  A    between atoms: _363  and  _364
REMARK  152  A    between atoms: _364  and  _365
REMARK  153  A    between atoms: _365  and  _366
REMARK  154  A    between atoms: _366  and  _367
REMARK  155  A    between atoms: _371  and  _373
REMARK  156  A    between atoms: _373  and  _374
REMARK  157  A    between atoms: _376  and  _378
REMARK  158  A    between atoms: _378  and  _379
REMARK  159  A    between atoms: _378  and  _381
REMARK  160  A    between atoms: _381  and  _382
REMARK  161  A    between atoms: _385  and  _387
REMARK  162  A    between atoms: _387  and  _388
REMARK  163  A    between atoms: _387  and  _390
REMARK  164  A    between atoms: _390  and  _391
REMARK  165  A    between atoms: _393  and  _395
REMARK  166  A    between atoms: _395  and  _396
REMARK  167  A    between atoms: _398  and  _400
REMARK  168  A    between atoms: _400  and  _401
REMARK  169  A    between atoms: _403  and  _405
REMARK  170  A    between atoms: _405  and  _406
REMARK  171  A    between atoms: _405  and  _408
REMARK  172  A    between atoms: _408  and  _409
REMARK  173  A    between atoms: _412  and  _414
REMARK  174  A    between atoms: _414  and  _415
REMARK  175  A    between atoms: _414  and  _417
REMARK  176  A    between atoms: _417  and  _418
REMARK  177  A    between atoms: _421  and  _423
REMARK  178  A    between atoms: _423  and  _424
REMARK  179  A    between atoms: _423  and  _426
REMARK  180  A    between atoms: _426  and  _427
REMARK  181  A    between atoms: _430  and  _432
REMARK  182  A    between atoms: _432  and  _433
REMARK  183  A    between atoms: _432  and  _435
REMARK  184  A    between atoms: _435  and  _436
REMARK  185  A    between atoms: _438  and  _440
REMARK  186  A    between atoms: _440  and  _441
REMARK  187  A    between atoms: _440  and  _443
REMARK  188  A    between atoms: _443  and  _444
REMARK  189  A    between atoms: _454  and  _456
REMARK  190  A    between atoms: _456  and  _457
REMARK  191  A    between atoms: _459  and  _461
REMARK  192  A    between atoms: _461  and  _462
REMARK  193  A    between atoms: _461  and  _464
REMARK  194  A    between atoms: _464  and  _465
REMARK  195  A    between atoms: _465  and  _466
REMARK  196  A    between atoms: _469  and  _471
REMARK  197  A    between atoms: _471  and  _472
REMARK  198  A    between atoms: _474  and  _476
REMARK  199  A    between atoms: _476  and  _477
REMARK  200  A    between atoms: _476  and  _479
REMARK  201  A    between atoms: _479  and  _480
REMARK  202  A    between atoms: _481  and  _483
REMARK  203  A    between atoms: _483  and  _484
REMARK  204  A    between atoms: _487  and  _489
REMARK  205  A    between atoms: _489  and  _490
REMARK  206  A    between atoms: _489  and  _492
REMARK  207  A    between atoms: _492  and  _493
REMARK  208  A    between atoms: _493  and  _494
REMARK  209  A    between atoms: _499  and  _501
REMARK  210  A    between atoms: _501  and  _502
REMARK  211  A    between atoms: _501  and  _504
REMARK  212  A    between atoms: _504  and  _505
REMARK  213  A    between atoms: _505  and  _506
REMARK  214  A    between atoms: _506  and  _507
REMARK  215  A    between atoms: _517  and  _518
REMARK  216  A    between atoms: _523  and  _525
REMARK  217  A    between atoms: _525  and  _526
REMARK  218  A    between atoms: _528  and  _530
REMARK  219  A    between atoms: _530  and  _531
REMARK  220  A    between atoms: _530  and  _533
REMARK  221  A    between atoms: _536  and  _538
REMARK  222  A    between atoms: _538  and  _539
REMARK  223  A    between atoms: _538  and  _541
REMARK  224  A    between atoms: _541  and  _542
REMARK  225  A    between atoms: _547  and  _548
REMARK  226  A    between atoms: _550  and  _552
REMARK  227  A    between atoms: _552  and  _553
REMARK  228  A    between atoms: _552  and  _555
REMARK  229  A    between atoms: _555  and  _556
REMARK                            x       y       z     vdW  Elec       q    Type
REMARK                         _______ _______ _______ _____ _____    ______ ____
ROOT
ATOM      1  O   HOH     1      40.851 -21.331  32.195  0.00  0.00    +0.000 OA
ENDROOT
TORSDOF 0
REMARK  Name = ../refined-set-2016/4x6n/4x6n_pocket.pdb
REMARK  229 active torsions:
REMARK  status: ('A' for Active; 'I' for Inactive)
REMARK    1  A    between atoms: _1  and  _5
REMARK    2  A    between atoms: _5  and  _6
REMARK    3  A    between atoms: _5  and  _8
REMARK    4  A    between atoms: _8  and  _9
REMARK    5  A    between atoms: _12  and  _14
REMARK    6  A    between atoms: _14  and  _15
REMARK    7  A    between atoms: _14  and  _17
REMARK    8  A    between atoms: _20  and  _22
REMARK    9  A    between atoms: _22  and  _23
REMARK   10  A    between atoms: _22  and  _25
REMARK   11  A    between atoms: _25  and  _26
REMARK   12  A    between atoms: _29  and  _31
REMARK   13  A    between atoms: _31  and  _32
REMARK   14  A    between atoms: _31  and  _34
REMARK   15  A    between atoms: _34  and  _35
REMARK   16  A    between atoms: _38  and  _40
REMARK   17  A    between atoms: _40  and  _41
REMARK   18  A    between atoms: _40  and  _43
REMARK   19  A    between atoms: _43  and  _44
REMARK   20  A    between atoms: _47  and  _49
REMARK   21  A    between atoms: _49  and  _50
REMARK   22  A    between atoms: _49  and  _52
REMARK   23  A    between atoms: _52  and  _53
REMARK   24  A    between atoms: _53  and  _54
REMARK   25  A    between atoms: _59  and  _61
REMARK   26  A    between atoms: _61  and  _62
REMARK   27  A    between atoms: _61  and  _64
REMARK   28  A    between atoms: _64  and  _65
REMARK   29  A    between atoms: _65  and  _66
REMARK   30  A    between atoms: _66  and  _67
REMARK   31  A    between atoms: _76  and  _78
REMARK   32  A    between atoms: _78  and  _79
REMARK   33  A    between atoms: _78  and  _81
REMARK   34  A    between atoms: _81  and  _82
REMARK   35  A    between atoms: _87  and  _89
REMARK   36  A    between atoms: _89  and  _90
REMARK   37  A    between atoms: _89  and  _92
REMARK   38  A    between atoms: _92  and  _93
REMARK   39  A    between atoms: _96  and  _98
REMARK   40  A    between atoms: _98  and  _99
REMARK   41  A    between atoms: _98  and  _101
REMARK   42  A    between atoms: _101  and  _102
REMARK   43  A    between atoms: _102  and  _137
REMARK   44  A    between atoms: _103  and  _105
REMARK   45  A    between atoms: _105  and  _106
REMARK   46  A    between atoms: _108  and  _110
REMARK   47  A    between atoms: _110  and  _111
REMARK   48  A    between atoms: _114  and  _116
REMARK   49  A    between atoms: _116  and  _117
REMARK   50  A    between atoms: _120  and  _122
REMARK   51  A    between atoms: _122  and  _123
REMARK   52  A    between atoms: _122  and  _125
REMARK   53  A    between atoms: _125  and  _126
REMARK   54  A    between atoms: _131  and  _133
REMARK   55  A    between atoms: _133  and  _134
REMARK   56  A    between atoms: _133  and  _136
REMARK   57  A    between atoms: _136  and  _137
REMARK   58  A    between atoms: _138  and  _140
REMARK   59  A    between atoms: _140  and  _141
REMARK   60  A    between atoms: _140  and  _143
REMARK   61  A    between atoms: _143  and  _144
REMARK   62  A    between atoms: _150  and  _152
REMARK   63  A    between atoms: _152  and  _153
REMARK   64  A    between atoms: _152  and  _155
REMARK   65  A    between atoms: _155  and  _156
REMARK   66  A    between atoms: _161  and  _162
REMARK   67  A    between atoms: _164  and  _166
REMARK   68  A    between atoms: _166  and  _167
REMARK   69  A    between atoms: _169  and  _171
REMARK   70  A    between atoms: _171  and  _172
REMARK   71  A    between atoms: _171  and  _174
REMARK   72  A    between atoms: _177  and  _179
REMARK   73  A    between atoms: _179  and  _180
REMARK   74  A    between atoms: _183  and  _185
REMARK   75  A    between atoms: _185  and  _186
REMARK   76  A    between atoms: _185  and  _188
REMARK   77  A    between atoms: _188  and  _189
REMARK   78  A    between atoms: _192  and  _194
REMARK   79  A    between atoms: _194  and  _195
REMARK   80  A    between atoms: _194  and  _197
REMARK   81  A    between atoms: _200  and  _202
REMARK   82  A    between atoms: _202  and  _203
REMARK   83  A    between atoms: _202  and  _205
REMARK   84  A    between atoms: _205  and  _206
REMARK   85  A    between atoms: _216  and  _218
REMARK   86  A    between atoms: _218  and  _219
REMARK   87  A    between atoms: _221  and  _223
REMARK   88  A    between atoms: _223  and  _224
REMARK   89  A    between atoms: _223  and  _226
REMARK   90  A    between atoms: _226  and  _227
REMARK   91  A    between atoms: _232  and  _233
REMARK   92  A    between atoms: _235  and  _237
REMARK   93  A    between atoms: _237  and  _238
REMARK   94  A    between atoms: _237  and  _240
REMARK   95  A    between atoms: _240  and  _241
REMARK   96  A    between atoms: _241  and  _242
REMARK   97  A    between atoms: _242  and  _243
REMARK   98  A    between atoms: _243  and  _244
REMARK   99  A    between atoms: _248  and  _250
REMARK  100  A    between atoms: _250  and  _251
REMARK  101  A    between atoms: _250  and  _253
REMARK  102  A    between atoms: _253  and  _254
REMARK  103  A    between atoms: _257  and  _259
REMARK  104  A    between atoms: _259  and  _260
REMARK  105  A    between atoms: _259  and  _262
REMARK  106  A    between atoms: _262  and  _263
REMARK  107  A    between atoms: _266  and  _268
REMARK  108  A    between atoms: _268  and  _269
REMARK  109  A    between atoms: _268  and  _271
REMARK  110  A    between atoms: _271  and  _272
REMARK  111  A    between atoms: _272  and  _273
REMARK  112  A    between atoms: _273  and  _274
REMARK  113  A    between atoms: _274  and  _275
REMARK  114  A    between atoms: _279  and  _281
REMARK  115  A    between atoms: _281  and  _282
REMARK  116  A    between atoms: _281  and  _284
REMARK  117  A    between atoms: _284  and  _285
REMARK  118  A    between atoms: _288  and  _290
REMARK  119  A    between atoms: _290  and  _291
REMARK  120  A    between atoms: _290  and  _293
REMARK  121  A    between atoms: _293  and  _294
REMARK  122  A    between atoms: _294  and  _295
REMARK  123  A    between atoms: _300  and  _302
REMARK  124  A    between atoms: _302  and  _303
REMARK  125  A    between atoms: _302  and  _305
REMARK  126  A    between atoms: _305  and  _306
REMARK  127  A    between atoms: _311  and  _312
REMARK  128  A    between atoms: _314  and  _316
REMARK  129  A    between atoms: _316  and  _317
REMARK  130  A    between atoms: _316  and  _319
REMARK  131  A    between atoms: _319  and  _320
REMARK  132  A    between atoms: _323  and  _325
REMARK  133  A    between atoms: _325  and  _326
REMARK  134  A    between atoms: _325  and  _328
REMARK  135  A    between atoms: _330  and  _332
REMARK  136  A    between atoms: _332  and  _333
REMARK  137  A    between atoms: _336  and  _338
REMARK  138  A    between atoms: _338  and  _339
REMARK  139  A    between atoms: _338  and  _341
REMARK  140  A    between atoms: _341  and  _342
REMARK  141  A    between atoms: _345  and  _347
REMARK  142  A    between atoms: _347  and  _348
REMARK  143  A    between atoms: _351  and  _353
REMARK  144  A    between atoms: _353  and  _354
REMARK  145  A    between atoms: _353  and  _356
REMARK  146  A    between atoms: _356  and  _357
REMARK  147  A    between atoms: _357  and  _480
REMARK  148  A    between atoms: _358  and  _360
REMARK  149  A    between atoms: _360  and  _361
REMARK  150  A    between atoms: _360  and  _363
REMARK  151  A    between atoms: _363  and  _364
REMARK  152  A    between atoms: _364  and  _365
REMARK  153  A    between atoms: _365  and  _366
REMARK  154  A    between atoms: _366  and  _367
REMARK  155  A    between atoms: _371  and  _373
REMARK  156  A    between atoms: _373  and  _374
REMARK  157  A    between atoms: _376  and  _378
REMARK  158  A    between atoms: _378  and  _379
REMARK  159  A    between atoms: _378  and  _381
REMARK  160  A    between atoms: _381  and  _382
REMARK  161  A    between atoms: _385  and  _387
REMARK  162  A    between atoms: _387  and  _388
REMARK  163  A    between atoms: _387  and  _390
REMARK  164  A    between atoms: _390  and  _391
REMARK  165  A    between atoms: _393  and  _395
REMARK  166  A    between atoms: _395  and  _396
REMARK  167  A    between atoms: _398  and  _400
REMARK  168  A    between atoms: _400  and  _401
REMARK  169  A    between atoms: _403  and  _405
REMARK  170  A    between atoms: _405  and  _406
REMARK  171  A    between atoms: _405  and  _408
REMARK  172  A    between atoms: _408  and  _409
REMARK  173  A    between atoms: _412  and  _414
REMARK  174  A    between atoms: _414  and  _415
REMARK  175  A    between atoms: _414  and  _417
REMARK  176  A    between atoms: _417  and  _418
REMARK  177  A    between atoms: _421  and  _423
REMARK  178  A    between atoms: _423  and  _424
REMARK  179  A    between atoms: _423  and  _426
REMARK  180  A    between atoms: _426  and  _427
REMARK  181  A    between atoms: _430  and  _432
REMARK  182  A    between atoms: _432  and  _433
REMARK  183  A    between atoms: _432  and  _435
REMARK  184  A    between atoms: _435  and  _436
REMARK  185  A    between atoms: _438  and  _440
REMARK  186  A    between atoms: _440  and  _441
REMARK  187  A    between atoms: _440  and  _443
REMARK  188  A    between atoms: _443  and  _444
REMARK  189  A    between atoms: _454  and  _456
REMARK  190  A    between atoms: _456  and  _457
REMARK  191  A    between atoms: _459  and  _461
REMARK  192  A    between atoms: _461  and  _462
REMARK  193  A    between atoms: _461  and  _464
REMARK  194  A    between atoms: _464  and  _465
REMARK  195  A    between atoms: _465  and  _466
REMARK  196  A    between atoms: _469  and  _471
REMARK  197  A    between atoms: _471  and  _472
REMARK  198  A    between atoms: _474  and  _476
REMARK  199  A    between atoms: _476  and  _477
REMARK  200  A    between atoms: _476  and  _479
REMARK  201  A    between atoms: _479  and  _480
REMARK  202  A    between atoms: _481  and  _483
REMARK  203  A    between atoms: _483  and  _484
REMARK  204  A    between atoms: _487  and  _489
REMARK  205  A    between atoms: _489  and  _490
REMARK  206  A    between atoms: _489  and  _492
REMARK  207  A    between atoms: _492  and  _493
REMARK  208  A    between atoms: _493  and  _494
REMARK  209  A    between atoms: _499  and  _501
REMARK  210  A    between atoms: _501  and  _502
REMARK  211  A    between atoms: _501  and  _504
REMARK  212  A    between atoms: _504  and  _505
REMARK  213  A    between atoms: _505  and  _506
REMARK  214  A    between atoms: _506  and  _507
REMARK  215  A    between atoms: _517  and  _518
REMARK  216  A    between atoms: _523  and  _525
REMARK  217  A    between atoms: _525  and  _526
REMARK  218  A    between atoms: _528  and  _530
REMARK  219  A    between atoms: _530  and  _531
REMARK  220  A    between atoms: _530  and  _533
REMARK  221  A    between atoms: _536  and  _538
REMARK  222  A    between atoms: _538  and  _539
REMARK  223  A    between atoms: _538  and  _541
REMARK  224  A    between atoms: _541  and  _542
REMARK  225  A    between atoms: _547  and  _548
REMARK  226  A    between atoms: _550  and  _552
REMARK  227  A    between atoms: _552  and  _553
REMARK  228  A    between atoms: _552  and  _555
REMARK  229  A    between atoms: _555  and  _556
REMARK                            x       y       z     vdW  Elec       q    Type
REMARK                         _______ _______ _______ _____ _____    ______ ____
ROOT
ATOM      1  O   HOH     1      51.046 -19.336  32.478  0.00  0.00    +0.000 OA
ENDROOT
TORSDOF 0
REMARK  Name = ../refined-set-2016/4x6n/4x6n_pocket.pdb
REMARK  229 active torsions:
REMARK  status: ('A' for Active; 'I' for Inactive)
REMARK    1  A    between atoms: _1  and  _5
REMARK    2  A    between atoms: _5  and  _6
REMARK    3  A    between atoms: _5  and  _8
REMARK    4  A    between atoms: _8  and  _9
REMARK    5  A    between atoms: _12  and  _14
REMARK    6  A    between atoms: _14  and  _15
REMARK    7  A    between atoms: _14  and  _17
REMARK    8  A    between atoms: _20  and  _22
REMARK    9  A    between atoms: _22  and  _23
REMARK   10  A    between atoms: _22  and  _25
REMARK   11  A    between atoms: _25  and  _26
REMARK   12  A    between atoms: _29  and  _31
REMARK   13  A    between atoms: _31  and  _32
REMARK   14  A    between atoms: _31  and  _34
REMARK   15  A    between atoms: _34  and  _35
REMARK   16  A    between atoms: _38  and  _40
REMARK   17  A    between atoms: _40  and  _41
REMARK   18  A    between atoms: _40  and  _43
REMARK   19  A    between atoms: _43  and  _44
REMARK   20  A    between atoms: _47  and  _49
REMARK   21  A    between atoms: _49  and  _50
REMARK   22  A    between atoms: _49  and  _52
REMARK   23  A    between atoms: _52  and  _53
REMARK   24  A    between atoms: _53  and  _54
REMARK   25  A    between atoms: _59  and  _61
REMARK   26  A    between atoms: _61  and  _62
REMARK   27  A    between atoms: _61  and  _64
REMARK   28  A    between atoms: _64  and  _65
REMARK   29  A    between atoms: _65  and  _66
REMARK   30  A    between atoms: _66  and  _67
REMARK   31  A    between atoms: _76  and  _78
REMARK   32  A    between atoms: _78  and  _79
REMARK   33  A    between atoms: _78  and  _81
REMARK   34  A    between atoms: _81  and  _82
REMARK   35  A    between atoms: _87  and  _89
REMARK   36  A    between atoms: _89  and  _90
REMARK   37  A    between atoms: _89  and  _92
REMARK   38  A    between atoms: _92  and  _93
REMARK   39  A    between atoms: _96  and  _98
REMARK   40  A    between atoms: _98  and  _99
REMARK   41  A    between atoms: _98  and  _101
REMARK   42  A    between atoms: _101  and  _102
REMARK   43  A    between atoms: _102  and  _137
REMARK   44  A    between atoms: _103  and  _105
REMARK   45  A    between atoms: _105  and  _106
REMARK   46  A    between atoms: _108  and  _110
REMARK   47  A    between atoms: _110  and  _111
REMARK   48  A    between atoms: _114  and  _116
REMARK   49  A    between atoms: _116  and  _117
REMARK   50  A    between atoms: _120  and  _122
REMARK   51  A    between atoms: _122  and  _123
REMARK   52  A    between atoms: _122  and  _125
REMARK   53  A    between atoms: _125  and  _126
REMARK   54  A    between atoms: _131  and  _133
REMARK   55  A    between atoms: _133  and  _134
REMARK   56  A    between atoms: _133  and  _136
REMARK   57  A    between atoms: _136  and  _137
REMARK   58  A    between atoms: _138  and  _140
REMARK   59  A    between atoms: _140  and  _141
REMARK   60  A    between atoms: _140  and  _143
REMARK   61  A    between atoms: _143  and  _144
REMARK   62  A    between atoms: _150  and  _152
REMARK   63  A    between atoms: _152  and  _153
REMARK   64  A    between atoms: _152  and  _155
REMARK   65  A    between atoms: _155  and  _156
REMARK   66  A    between atoms: _161  and  _162
REMARK   67  A    between atoms: _164  and  _166
REMARK   68  A    between atoms: _166  and  _167
REMARK   69  A    between atoms: _169  and  _171
REMARK   70  A    between atoms: _171  and  _172
REMARK   71  A    between atoms: _171  and  _174
REMARK   72  A    between atoms: _177  and  _179
REMARK   73  A    between atoms: _179  and  _180
REMARK   74  A    between atoms: _183  and  _185
REMARK   75  A    between atoms: _185  and  _186
REMARK   76  A    between atoms: _185  and  _188
REMARK   77  A    between atoms: _188  and  _189
REMARK   78  A    between atoms: _192  and  _194
REMARK   79  A    between atoms: _194  and  _195
REMARK   80  A    between atoms: _194  and  _197
REMARK   81  A    between atoms: _200  and  _202
REMARK   82  A    between atoms: _202  and  _203
REMARK   83  A    between atoms: _202  and  _205
REMARK   84  A    between atoms: _205  and  _206
REMARK   85  A    between atoms: _216  and  _218
REMARK   86  A    between atoms: _218  and  _219
REMARK   87  A    between atoms: _221  and  _223
REMARK   88  A    between atoms: _223  and  _224
REMARK   89  A    between atoms: _223  and  _226
REMARK   90  A    between atoms: _226  and  _227
REMARK   91  A    between atoms: _232  and  _233
REMARK   92  A    between atoms: _235  and  _237
REMARK   93  A    between atoms: _237  and  _238
REMARK   94  A    between atoms: _237  and  _240
REMARK   95  A    between atoms: _240  and  _241
REMARK   96  A    between atoms: _241  and  _242
REMARK   97  A    between atoms: _242  and  _243
REMARK   98  A    between atoms: _243  and  _244
REMARK   99  A    between atoms: _248  and  _250
REMARK  100  A    between atoms: _250  and  _251
REMARK  101  A    between atoms: _250  and  _253
REMARK  102  A    between atoms: _253  and  _254
REMARK  103  A    between atoms: _257  and  _259
REMARK  104  A    between atoms: _259  and  _260
REMARK  105  A    between atoms: _259  and  _262
REMARK  106  A    between atoms: _262  and  _263
REMARK  107  A    between atoms: _266  and  _268
REMARK  108  A    between atoms: _268  and  _269
REMARK  109  A    between atoms: _268  and  _271
REMARK  110  A    between atoms: _271  and  _272
REMARK  111  A    between atoms: _272  and  _273
REMARK  112  A    between atoms: _273  and  _274
REMARK  113  A    between atoms: _274  and  _275
REMARK  114  A    between atoms: _279  and  _281
REMARK  115  A    between atoms: _281  and  _282
REMARK  116  A    between atoms: _281  and  _284
REMARK  117  A    between atoms: _284  and  _285
REMARK  118  A    between atoms: _288  and  _290
REMARK  119  A    between atoms: _290  and  _291
REMARK  120  A    between atoms: _290  and  _293
REMARK  121  A    between atoms: _293  and  _294
REMARK  122  A    between atoms: _294  and  _295
REMARK  123  A    between atoms: _300  and  _302
REMARK  124  A    between atoms: _302  and  _303
REMARK  125  A    between atoms: _302  and  _305
REMARK  126  A    between atoms: _305  and  _306
REMARK  127  A    between atoms: _311  and  _312
REMARK  128  A    between atoms: _314  and  _316
REMARK  129  A    between atoms: _316  and  _317
REMARK  130  A    between atoms: _316  and  _319
REMARK  131  A    between atoms: _319  and  _320
REMARK  132  A    between atoms: _323  and  _325
REMARK  133  A    between atoms: _325  and  _326
REMARK  134  A    between atoms: _325  and  _328
REMARK  135  A    between atoms: _330  and  _332
REMARK  136  A    between atoms: _332  and  _333
REMARK  137  A    between atoms: _336  and  _338
REMARK  138  A    between atoms: _338  and  _339
REMARK  139  A    between atoms: _338  and  _341
REMARK  140  A    between atoms: _341  and  _342
REMARK  141  A    between atoms: _345  and  _347
REMARK  142  A    between atoms: _347  and  _348
REMARK  143  A    between atoms: _351  and  _353
REMARK  144  A    between atoms: _353  and  _354
REMARK  145  A    between atoms: _353  and  _356
REMARK  146  A    between atoms: _356  and  _357
REMARK  147  A    between atoms: _357  and  _480
REMARK  148  A    between atoms: _358  and  _360
REMARK  149  A    between atoms: _360  and  _361
REMARK  150  A    between atoms: _360  and  _363
REMARK  151  A    between atoms: _363  and  _364
REMARK  152  A    between atoms: _364  and  _365
REMARK  153  A    between atoms: _365  and  _366
REMARK  154  A    between atoms: _366  and  _367
REMARK  155  A    between atoms: _371  and  _373
REMARK  156  A    between atoms: _373  and  _374
REMARK  157  A    between atoms: _376  and  _378
REMARK  158  A    between atoms: _378  and  _379
REMARK  159  A    between atoms: _378  and  _381
REMARK  160  A    between atoms: _381  and  _382
REMARK  161  A    between atoms: _385  and  _387
REMARK  162  A    between atoms: _387  and  _388
REMARK  163  A    between atoms: _387  and  _390
REMARK  164  A    between atoms: _390  and  _391
REMARK  165  A    between atoms: _393  and  _395
REMARK  166  A    between atoms: _395  and  _396
REMARK  167  A    between atoms: _398  and  _400
REMARK  168  A    between atoms: _400  and  _401
REMARK  169  A    between atoms: _403  and  _405
REMARK  170  A    between atoms: _405  and  _406
REMARK  171  A    between atoms: _405  and  _408
REMARK  172  A    between atoms: _408  and  _409
REMARK  173  A    between atoms: _412  and  _414
REMARK  174  A    between atoms: _414  and  _415
REMARK  175  A    between atoms: _414  and  _417
REMARK  176  A    between atoms: _417  and  _418
REMARK  177  A    between atoms: _421  and  _423
REMARK  178  A    between atoms: _423  and  _424
REMARK  179  A    between atoms: _423  and  _426
REMARK  180  A    between atoms: _426  and  _427
REMARK  181  A    between atoms: _430  and  _432
REMARK  182  A    between atoms: _432  and  _433
REMARK  183  A    between atoms: _432  and  _435
REMARK  184  A    between atoms: _435  and  _436
REMARK  185  A    between atoms: _438  and  _440
REMARK  186  A    between atoms: _440  and  _441
REMARK  187  A    between atoms: _440  and  _443
REMARK  188  A    between atoms: _443  and  _444
REMARK  189  A    between atoms: _454  and  _456
REMARK  190  A    between atoms: _456  and  _457
REMARK  191  A    between atoms: _459  and  _461
REMARK  192  A    between atoms: _461  and  _462
REMARK  193  A    between atoms: _461  and  _464
REMARK  194  A    between atoms: _464  and  _465
REMARK  195  A    between atoms: _465  and  _466
REMARK  196  A    between atoms: _469  and  _471
REMARK  197  A    between atoms: _471  and  _472
REMARK  198  A    between atoms: _474  and  _476
REMARK  199  A    between atoms: _476  and  _477
REMARK  200  A    between atoms: _476  and  _479
REMARK  201  A    between atoms: _479  and  _480
REMARK  202  A    between atoms: _481  and  _483
REMARK  203  A    between atoms: _483  and  _484
REMARK  204  A    between atoms: _487  and  _489
REMARK  205  A    between atoms: _489  and  _490
REMARK  206  A    between atoms: _489  and  _492
REMARK  207  A    between atoms: _492  and  _493
REMARK  208  A    between atoms: _493  and  _494
REMARK  209  A    between atoms: _499  and  _501
REMARK  210  A    between atoms: _501  and  _502
REMARK  211  A    between atoms: _501  and  _504
REMARK  212  A    between atoms: _504  and  _505
REMARK  213  A    between atoms: _505  and  _506
REMARK  214  A    between atoms: _506  and  _507
REMARK  215  A    between atoms: _517  and  _518
REMARK  216  A    between atoms: _523  and  _525
REMARK  217  A    between atoms: _525  and  _526
REMARK  218  A    between atoms: _528  and  _530
REMARK  219  A    between atoms: _530  and  _531
REMARK  220  A    between atoms: _530  and  _533
REMARK  221  A    between atoms: _536  and  _538
REMARK  222  A    between atoms: _538  and  _539
REMARK  223  A    between atoms: _538  and  _541
REMARK  224  A    between atoms: _541  and  _542
REMARK  225  A    between atoms: _547  and  _548
REMARK  226  A    between atoms: _550  and  _552
REMARK  227  A    between atoms: _552  and  _553
REMARK  228  A    between atoms: _552  and  _555
REMARK  229  A    between atoms: _555  and  _556
REMARK                            x       y       z     vdW  Elec       q    Type
REMARK                         _______ _______ _______ _____ _____    ______ ____
ROOT
ATOM      1  O   HOH     1      38.403 -17.355  37.559  0.00  0.00    +0.000 OA
ENDROOT
TORSDOF 0
REMARK  Name = ../refined-set-2016/4x6n/4x6n_pocket.pdb
REMARK  229 active torsions:
REMARK  status: ('A' for Active; 'I' for Inactive)
REMARK    1  A    between atoms: _1  and  _5
REMARK    2  A    between atoms: _5  and  _6
REMARK    3  A    between atoms: _5  and  _8
REMARK    4  A    between atoms: _8  and  _9
REMARK    5  A    between atoms: _12  and  _14
REMARK    6  A    between atoms: _14  and  _15
REMARK    7  A    between atoms: _14  and  _17
REMARK    8  A    between atoms: _20  and  _22
REMARK    9  A    between atoms: _22  and  _23
REMARK   10  A    between atoms: _22  and  _25
REMARK   11  A    between atoms: _25  and  _26
REMARK   12  A    between atoms: _29  and  _31
REMARK   13  A    between atoms: _31  and  _32
REMARK   14  A    between atoms: _31  and  _34
REMARK   15  A    between atoms: _34  and  _35
REMARK   16  A    between atoms: _38  and  _40
REMARK   17  A    between atoms: _40  and  _41
REMARK   18  A    between atoms: _40  and  _43
REMARK   19  A    between atoms: _43  and  _44
REMARK   20  A    between atoms: _47  and  _49
REMARK   21  A    between atoms: _49  and  _50
REMARK   22  A    between atoms: _49  and  _52
REMARK   23  A    between atoms: _52  and  _53
REMARK   24  A    between atoms: _53  and  _54
REMARK   25  A    between atoms: _59  and  _61
REMARK   26  A    between atoms: _61  and  _62
REMARK   27  A    between atoms: _61  and  _64
REMARK   28  A    between atoms: _64  and  _65
REMARK   29  A    between atoms: _65  and  _66
REMARK   30  A    between atoms: _66  and  _67
REMARK   31  A    between atoms: _76  and  _78
REMARK   32  A    between atoms: _78  and  _79
REMARK   33  A    between atoms: _78  and  _81
REMARK   34  A    between atoms: _81  and  _82
REMARK   35  A    between atoms: _87  and  _89
REMARK   36  A    between atoms: _89  and  _90
REMARK   37  A    between atoms: _89  and  _92
REMARK   38  A    between atoms: _92  and  _93
REMARK   39  A    between atoms: _96  and  _98
REMARK   40  A    between atoms: _98  and  _99
REMARK   41  A    between atoms: _98  and  _101
REMARK   42  A    between atoms: _101  and  _102
REMARK   43  A    between atoms: _102  and  _137
REMARK   44  A    between atoms: _103  and  _105
REMARK   45  A    between atoms: _105  and  _106
REMARK   46  A    between atoms: _108  and  _110
REMARK   47  A    between atoms: _110  and  _111
REMARK   48  A    between atoms: _114  and  _116
REMARK   49  A    between atoms: _116  and  _117
REMARK   50  A    between atoms: _120  and  _122
REMARK   51  A    between atoms: _122  and  _123
REMARK   52  A    between atoms: _122  and  _125
REMARK   53  A    between atoms: _125  and  _126
REMARK   54  A    between atoms: _131  and  _133
REMARK   55  A    between atoms: _133  and  _134
REMARK   56  A    between atoms: _133  and  _136
REMARK   57  A    between atoms: _136  and  _137
REMARK   58  A    between atoms: _138  and  _140
REMARK   59  A    between atoms: _140  and  _141
REMARK   60  A    between atoms: _140  and  _143
REMARK   61  A    between atoms: _143  and  _144
REMARK   62  A    between atoms: _150  and  _152
REMARK   63  A    between atoms: _152  and  _153
REMARK   64  A    between atoms: _152  and  _155
REMARK   65  A    between atoms: _155  and  _156
REMARK   66  A    between atoms: _161  and  _162
REMARK   67  A    between atoms: _164  and  _166
REMARK   68  A    between atoms: _166  and  _167
REMARK   69  A    between atoms: _169  and  _171
REMARK   70  A    between atoms: _171  and  _172
REMARK   71  A    between atoms: _171  and  _174
REMARK   72  A    between atoms: _177  and  _179
REMARK   73  A    between atoms: _179  and  _180
REMARK   74  A    between atoms: _183  and  _185
REMARK   75  A    between atoms: _185  and  _186
REMARK   76  A    between atoms: _185  and  _188
REMARK   77  A    between atoms: _188  and  _189
REMARK   78  A    between atoms: _192  and  _194
REMARK   79  A    between atoms: _194  and  _195
REMARK   80  A    between atoms: _194  and  _197
REMARK   81  A    between atoms: _200  and  _202
REMARK   82  A    between atoms: _202  and  _203
REMARK   83  A    between atoms: _202  and  _205
REMARK   84  A    between atoms: _205  and  _206
REMARK   85  A    between atoms: _216  and  _218
REMARK   86  A    between atoms: _218  and  _219
REMARK   87  A    between atoms: _221  and  _223
REMARK   88  A    between atoms: _223  and  _224
REMARK   89  A    between atoms: _223  and  _226
REMARK   90  A    between atoms: _226  and  _227
REMARK   91  A    between atoms: _232  and  _233
REMARK   92  A    between atoms: _235  and  _237
REMARK   93  A    between atoms: _237  and  _238
REMARK   94  A    between atoms: _237  and  _240
REMARK   95  A    between atoms: _240  and  _241
REMARK   96  A    between atoms: _241  and  _242
REMARK   97  A    between atoms: _242  and  _243
REMARK   98  A    between atoms: _243  and  _244
REMARK   99  A    between atoms: _248  and  _250
REMARK  100  A    between atoms: _250  and  _251
REMARK  101  A    between atoms: _250  and  _253
REMARK  102  A    between atoms: _253  and  _254
REMARK  103  A    between atoms: _257  and  _259
REMARK  104  A    between atoms: _259  and  _260
REMARK  105  A    between atoms: _259  and  _262
REMARK  106  A    between atoms: _262  and  _263
REMARK  107  A    between atoms: _266  and  _268
REMARK  108  A    between atoms: _268  and  _269
REMARK  109  A    between atoms: _268  and  _271
REMARK  110  A    between atoms: _271  and  _272
REMARK  111  A    between atoms: _272  and  _273
REMARK  112  A    between atoms: _273  and  _274
REMARK  113  A    between atoms: _274  and  _275
REMARK  114  A    between atoms: _279  and  _281
REMARK  115  A    between atoms: _281  and  _282
REMARK  116  A    between atoms: _281  and  _284
REMARK  117  A    between atoms: _284  and  _285
REMARK  118  A    between atoms: _288  and  _290
REMARK  119  A    between atoms: _290  and  _291
REMARK  120  A    between atoms: _290  and  _293
REMARK  121  A    between atoms: _293  and  _294
REMARK  122  A    between atoms: _294  and  _295
REMARK  123  A    between atoms: _300  and  _302
REMARK  124  A    between atoms: _302  and  _303
REMARK  125  A    between atoms: _302  and  _305
REMARK  126  A    between atoms: _305  and  _306
REMARK  127  A    between atoms: _311  and  _312
REMARK  128  A    between atoms: _314  and  _316
REMARK  129  A    between atoms: _316  and  _317
REMARK  130  A    between atoms: _316  and  _319
REMARK  131  A    between atoms: _319  and  _320
REMARK  132  A    between atoms: _323  and  _325
REMARK  133  A    between atoms: _325  and  _326
REMARK  134  A    between atoms: _325  and  _328
REMARK  135  A    between atoms: _330  and  _332
REMARK  136  A    between atoms: _332  and  _333
REMARK  137  A    between atoms: _336  and  _338
REMARK  138  A    between atoms: _338  and  _339
REMARK  139  A    between atoms: _338  and  _341
REMARK  140  A    between atoms: _341  and  _342
REMARK  141  A    between atoms: _345  and  _347
REMARK  142  A    between atoms: _347  and  _348
REMARK  143  A    between atoms: _351  and  _353
REMARK  144  A    between atoms: _353  and  _354
REMARK  145  A    between atoms: _353  and  _356
REMARK  146  A    between atoms: _356  and  _357
REMARK  147  A    between atoms: _357  and  _480
REMARK  148  A    between atoms: _358  and  _360
REMARK  149  A    between atoms: _360  and  _361
REMARK  150  A    between atoms: _360  and  _363
REMARK  151  A    between atoms: _363  and  _364
REMARK  152  A    between atoms: _364  and  _365
REMARK  153  A    between atoms: _365  and  _366
REMARK  154  A    between atoms: _366  and  _367
REMARK  155  A    between atoms: _371  and  _373
REMARK  156  A    between atoms: _373  and  _374
REMARK  157  A    between atoms: _376  and  _378
REMARK  158  A    between atoms: _378  and  _379
REMARK  159  A    between atoms: _378  and  _381
REMARK  160  A    between atoms: _381  and  _382
REMARK  161  A    between atoms: _385  and  _387
REMARK  162  A    between atoms: _387  and  _388
REMARK  163  A    between atoms: _387  and  _390
REMARK  164  A    between atoms: _390  and  _391
REMARK  165  A    between atoms: _393  and  _395
REMARK  166  A    between atoms: _395  and  _396
REMARK  167  A    between atoms: _398  and  _400
REMARK  168  A    between atoms: _400  and  _401
REMARK  169  A    between atoms: _403  and  _405
REMARK  170  A    between atoms: _405  and  _406
REMARK  171  A    between atoms: _405  and  _408
REMARK  172  A    between atoms: _408  and  _409
REMARK  173  A    between atoms: _412  and  _414
REMARK  174  A    between atoms: _414  and  _415
REMARK  175  A    between atoms: _414  and  _417
REMARK  176  A    between atoms: _417  and  _418
REMARK  177  A    between atoms: _421  and  _423
REMARK  178  A    between atoms: _423  and  _424
REMARK  179  A    between atoms: _423  and  _426
REMARK  180  A    between atoms: _426  and  _427
REMARK  181  A    between atoms: _430  and  _432
REMARK  182  A    between atoms: _432  and  _433
REMARK  183  A    between atoms: _432  and  _435
REMARK  184  A    between atoms: _435  and  _436
REMARK  185  A    between atoms: _438  and  _440
REMARK  186  A    between atoms: _440  and  _441
REMARK  187  A    between atoms: _440  and  _443
REMARK  188  A    between atoms: _443  and  _444
REMARK  189  A    between atoms: _454  and  _456
REMARK  190  A    between atoms: _456  and  _457
REMARK  191  A    between atoms: _459  and  _461
REMARK  192  A    between atoms: _461  and  _462
REMARK  193  A    between atoms: _461  and  _464
REMARK  194  A    between atoms: _464  and  _465
REMARK  195  A    between atoms: _465  and  _466
REMARK  196  A    between atoms: _469  and  _471
REMARK  197  A    between atoms: _471  and  _472
REMARK  198  A    between atoms: _474  and  _476
REMARK  199  A    between atoms: _476  and  _477
REMARK  200  A    between atoms: _476  and  _479
REMARK  201  A    between atoms: _479  and  _480
REMARK  202  A    between atoms: _481  and  _483
REMARK  203  A    between atoms: _483  and  _484
REMARK  204  A    between atoms: _487  and  _489
REMARK  205  A    between atoms: _489  and  _490
REMARK  206  A    between atoms: _489  and  _492
REMARK  207  A    between atoms: _492  and  _493
REMARK  208  A    between atoms: _493  and  _494
REMARK  209  A    between atoms: _499  and  _501
REMARK  210  A    between atoms: _501  and  _502
REMARK  211  A    between atoms: _501  and  _504
REMARK  212  A    between atoms: _504  and  _505
REMARK  213  A    between atoms: _505  and  _506
REMARK  214  A    between atoms: _506  and  _507
REMARK  215  A    between atoms: _517  and  _518
REMARK  216  A    between atoms: _523  and  _525
REMARK  217  A    between atoms: _525  and  _526
REMARK  218  A    between atoms: _528  and  _530
REMARK  219  A    between atoms: _530  and  _531
REMARK  220  A    between atoms: _530  and  _533
REMARK  221  A    between atoms: _536  and  _538
REMARK  222  A    between atoms: _538  and  _539
REMARK  223  A    between atoms: _538  and  _541
REMARK  224  A    between atoms: _541  and  _542
REMARK  225  A    between atoms: _547  and  _548
REMARK  226  A    between atoms: _550  and  _552
REMARK  227  A    between atoms: _552  and  _553
REMARK  228  A    between atoms: _552  and  _555
REMARK  229  A    between atoms: _555  and  _556
REMARK                            x       y       z     vdW  Elec       q    Type
REMARK                         _______ _______ _______ _____ _____    ______ ____
ROOT
ATOM      1  O   HOH     1      41.777  -9.093  22.600  0.00  0.00    +0.000 OA
ENDROOT
TORSDOF 0
REMARK  Name = ../refined-set-2016/4x6n/4x6n_pocket.pdb
REMARK  229 active torsions:
REMARK  status: ('A' for Active; 'I' for Inactive)
REMARK    1  A    between atoms: _1  and  _5
REMARK    2  A    between atoms: _5  and  _6
REMARK    3  A    between atoms: _5  and  _8
REMARK    4  A    between atoms: _8  and  _9
REMARK    5  A    between atoms: _12  and  _14
REMARK    6  A    between atoms: _14  and  _15
REMARK    7  A    between atoms: _14  and  _17
REMARK    8  A    between atoms: _20  and  _22
REMARK    9  A    between atoms: _22  and  _23
REMARK   10  A    between atoms: _22  and  _25
REMARK   11  A    between atoms: _25  and  _26
REMARK   12  A    between atoms: _29  and  _31
REMARK   13  A    between atoms: _31  and  _32
REMARK   14  A    between atoms: _31  and  _34
REMARK   15  A    between atoms: _34  and  _35
REMARK   16  A    between atoms: _38  and  _40
REMARK   17  A    between atoms: _40  and  _41
REMARK   18  A    between atoms: _40  and  _43
REMARK   19  A    between atoms: _43  and  _44
REMARK   20  A    between atoms: _47  and  _49
REMARK   21  A    between atoms: _49  and  _50
REMARK   22  A    between atoms: _49  and  _52
REMARK   23  A    between atoms: _52  and  _53
REMARK   24  A    between atoms: _53  and  _54
REMARK   25  A    between atoms: _59  and  _61
REMARK   26  A    between atoms: _61  and  _62
REMARK   27  A    between atoms: _61  and  _64
REMARK   28  A    between atoms: _64  and  _65
REMARK   29  A    between atoms: _65  and  _66
REMARK   30  A    between atoms: _66  and  _67
REMARK   31  A    between atoms: _76  and  _78
REMARK   32  A    between atoms: _78  and  _79
REMARK   33  A    between atoms: _78  and  _81
REMARK   34  A    between atoms: _81  and  _82
REMARK   35  A    between atoms: _87  and  _89
REMARK   36  A    between atoms: _89  and  _90
REMARK   37  A    between atoms: _89  and  _92
REMARK   38  A    between atoms: _92  and  _93
REMARK   39  A    between atoms: _96  and  _98
REMARK   40  A    between atoms: _98  and  _99
REMARK   41  A    between atoms: _98  and  _101
REMARK   42  A    between atoms: _101  and  _102
REMARK   43  A    between atoms: _102  and  _137
REMARK   44  A    between atoms: _103  and  _105
REMARK   45  A    between atoms: _105  and  _106
REMARK   46  A    between atoms: _108  and  _110
REMARK   47  A    between atoms: _110  and  _111
REMARK   48  A    between atoms: _114  and  _116
REMARK   49  A    between atoms: _116  and  _117
REMARK   50  A    between atoms: _120  and  _122
REMARK   51  A    between atoms: _122  and  _123
REMARK   52  A    between atoms: _122  and  _125
REMARK   53  A    between atoms: _125  and  _126
REMARK   54  A    between atoms: _131  and  _133
REMARK   55  A    between atoms: _133  and  _134
REMARK   56  A    between atoms: _133  and  _136
REMARK   57  A    between atoms: _136  and  _137
REMARK   58  A    between atoms: _138  and  _140
REMARK   59  A    between atoms: _140  and  _141
REMARK   60  A    between atoms: _140  and  _143
REMARK   61  A    between atoms: _143  and  _144
REMARK   62  A    between atoms: _150  and  _152
REMARK   63  A    between atoms: _152  and  _153
REMARK   64  A    between atoms: _152  and  _155
REMARK   65  A    between atoms: _155  and  _156
REMARK   66  A    between atoms: _161  and  _162
REMARK   67  A    between atoms: _164  and  _166
REMARK   68  A    between atoms: _166  and  _167
REMARK   69  A    between atoms: _169  and  _171
REMARK   70  A    between atoms: _171  and  _172
REMARK   71  A    between atoms: _171  and  _174
REMARK   72  A    between atoms: _177  and  _179
REMARK   73  A    between atoms: _179  and  _180
REMARK   74  A    between atoms: _183  and  _185
REMARK   75  A    between atoms: _185  and  _186
REMARK   76  A    between atoms: _185  and  _188
REMARK   77  A    between atoms: _188  and  _189
REMARK   78  A    between atoms: _192  and  _194
REMARK   79  A    between atoms: _194  and  _195
REMARK   80  A    between atoms: _194  and  _197
REMARK   81  A    between atoms: _200  and  _202
REMARK   82  A    between atoms: _202  and  _203
REMARK   83  A    between atoms: _202  and  _205
REMARK   84  A    between atoms: _205  and  _206
REMARK   85  A    between atoms: _216  and  _218
REMARK   86  A    between atoms: _218  and  _219
REMARK   87  A    between atoms: _221  and  _223
REMARK   88  A    between atoms: _223  and  _224
REMARK   89  A    between atoms: _223  and  _226
REMARK   90  A    between atoms: _226  and  _227
REMARK   91  A    between atoms: _232  and  _233
REMARK   92  A    between atoms: _235  and  _237
REMARK   93  A    between atoms: _237  and  _238
REMARK   94  A    between atoms: _237  and  _240
REMARK   95  A    between atoms: _240  and  _241
REMARK   96  A    between atoms: _241  and  _242
REMARK   97  A    between atoms: _242  and  _243
REMARK   98  A    between atoms: _243  and  _244
REMARK   99  A    between atoms: _248  and  _250
REMARK  100  A    between atoms: _250  and  _251
REMARK  101  A    between atoms: _250  and  _253
REMARK  102  A    between atoms: _253  and  _254
REMARK  103  A    between atoms: _257  and  _259
REMARK  104  A    between atoms: _259  and  _260
REMARK  105  A    between atoms: _259  and  _262
REMARK  106  A    between atoms: _262  and  _263
REMARK  107  A    between atoms: _266  and  _268
REMARK  108  A    between atoms: _268  and  _269
REMARK  109  A    between atoms: _268  and  _271
REMARK  110  A    between atoms: _271  and  _272
REMARK  111  A    between atoms: _272  and  _273
REMARK  112  A    between atoms: _273  and  _274
REMARK  113  A    between atoms: _274  and  _275
REMARK  114  A    between atoms: _279  and  _281
REMARK  115  A    between atoms: _281  and  _282
REMARK  116  A    between atoms: _281  and  _284
REMARK  117  A    between atoms: _284  and  _285
REMARK  118  A    between atoms: _288  and  _290
REMARK  119  A    between atoms: _290  and  _291
REMARK  120  A    between atoms: _290  and  _293
REMARK  121  A    between atoms: _293  and  _294
REMARK  122  A    between atoms: _294  and  _295
REMARK  123  A    between atoms: _300  and  _302
REMARK  124  A    between atoms: _302  and  _303
REMARK  125  A    between atoms: _302  and  _305
REMARK  126  A    between atoms: _305  and  _306
REMARK  127  A    between atoms: _311  and  _312
REMARK  128  A    between atoms: _314  and  _316
REMARK  129  A    between atoms: _316  and  _317
REMARK  130  A    between atoms: _316  and  _319
REMARK  131  A    between atoms: _319  and  _320
REMARK  132  A    between atoms: _323  and  _325
REMARK  133  A    between atoms: _325  and  _326
REMARK  134  A    between atoms: _325  and  _328
REMARK  135  A    between atoms: _330  and  _332
REMARK  136  A    between atoms: _332  and  _333
REMARK  137  A    between atoms: _336  and  _338
REMARK  138  A    between atoms: _338  and  _339
REMARK  139  A    between atoms: _338  and  _341
REMARK  140  A    between atoms: _341  and  _342
REMARK  141  A    between atoms: _345  and  _347
REMARK  142  A    between atoms: _347  and  _348
REMARK  143  A    between atoms: _351  and  _353
REMARK  144  A    between atoms: _353  and  _354
REMARK  145  A    between atoms: _353  and  _356
REMARK  146  A    between atoms: _356  and  _357
REMARK  147  A    between atoms: _357  and  _480
REMARK  148  A    between atoms: _358  and  _360
REMARK  149  A    between atoms: _360  and  _361
REMARK  150  A    between atoms: _360  and  _363
REMARK  151  A    between atoms: _363  and  _364
REMARK  152  A    between atoms: _364  and  _365
REMARK  153  A    between atoms: _365  and  _366
REMARK  154  A    between atoms: _366  and  _367
REMARK  155  A    between atoms: _371  and  _373
REMARK  156  A    between atoms: _373  and  _374
REMARK  157  A    between atoms: _376  and  _378
REMARK  158  A    between atoms: _378  and  _379
REMARK  159  A    between atoms: _378  and  _381
REMARK  160  A    between atoms: _381  and  _382
REMARK  161  A    between atoms: _385  and  _387
REMARK  162  A    between atoms: _387  and  _388
REMARK  163  A    between atoms: _387  and  _390
REMARK  164  A    between atoms: _390  and  _391
REMARK  165  A    between atoms: _393  and  _395
REMARK  166  A    between atoms: _395  and  _396
REMARK  167  A    between atoms: _398  and  _400
REMARK  168  A    between atoms: _400  and  _401
REMARK  169  A    between atoms: _403  and  _405
REMARK  170  A    between atoms: _405  and  _406
REMARK  171  A    between atoms: _405  and  _408
REMARK  172  A    between atoms: _408  and  _409
REMARK  173  A    between atoms: _412  and  _414
REMARK  174  A    between atoms: _414  and  _415
REMARK  175  A    between atoms: _414  and  _417
REMARK  176  A    between atoms: _417  and  _418
REMARK  177  A    between atoms: _421  and  _423
REMARK  178  A    between atoms: _423  and  _424
REMARK  179  A    between atoms: _423  and  _426
REMARK  180  A    between atoms: _426  and  _427
REMARK  181  A    between atoms: _430  and  _432
REMARK  182  A    between atoms: _432  and  _433
REMARK  183  A    between atoms: _432  and  _435
REMARK  184  A    between atoms: _435  and  _436
REMARK  185  A    between atoms: _438  and  _440
REMARK  186  A    between atoms: _440  and  _441
REMARK  187  A    between atoms: _440  and  _443
REMARK  188  A    between atoms: _443  and  _444
REMARK  189  A    between atoms: _454  and  _456
REMARK  190  A    between atoms: _456  and  _457
REMARK  191  A    between atoms: _459  and  _461
REMARK  192  A    between atoms: _461  and  _462
REMARK  193  A    between atoms: _461  and  _464
REMARK  194  A    between atoms: _464  and  _465
REMARK  195  A    between atoms: _465  and  _466
REMARK  196  A    between atoms: _469  and  _471
REMARK  197  A    between atoms: _471  and  _472
REMARK  198  A    between atoms: _474  and  _476
REMARK  199  A    between atoms: _476  and  _477
REMARK  200  A    between atoms: _476  and  _479
REMARK  201  A    between atoms: _479  and  _480
REMARK  202  A    between atoms: _481  and  _483
REMARK  203  A    between atoms: _483  and  _484
REMARK  204  A    between atoms: _487  and  _489
REMARK  205  A    between atoms: _489  and  _490
REMARK  206  A    between atoms: _489  and  _492
REMARK  207  A    between atoms: _492  and  _493
REMARK  208  A    between atoms: _493  and  _494
REMARK  209  A    between atoms: _499  and  _501
REMARK  210  A    between atoms: _501  and  _502
REMARK  211  A    between atoms: _501  and  _504
REMARK  212  A    between atoms: _504  and  _505
REMARK  213  A    between atoms: _505  and  _506
REMARK  214  A    between atoms: _506  and  _507
REMARK  215  A    between atoms: _517  and  _518
REMARK  216  A    between atoms: _523  and  _525
REMARK  217  A    between atoms: _525  and  _526
REMARK  218  A    between atoms: _528  and  _530
REMARK  219  A    between atoms: _530  and  _531
REMARK  220  A    between atoms: _530  and  _533
REMARK  221  A    between atoms: _536  and  _538
REMARK  222  A    between atoms: _538  and  _539
REMARK  223  A    between atoms: _538  and  _541
REMARK  224  A    between atoms: _541  and  _542
REMARK  225  A    between atoms: _547  and  _548
REMARK  226  A    between atoms: _550  and  _552
REMARK  227  A    between atoms: _552  and  _553
REMARK  228  A    between atoms: _552  and  _555
REMARK  229  A    between atoms: _555  and  _556
REMARK                            x       y       z     vdW  Elec       q    Type
REMARK                         _______ _______ _______ _____ _____    ______ ____
ROOT
ATOM      1  O   HOH     1      48.628 -19.056  25.520  0.00  0.00    +0.000 OA
ENDROOT
TORSDOF 0
REMARK  Name = ../refined-set-2016/4x6n/4x6n_pocket.pdb
REMARK  229 active torsions:
REMARK  status: ('A' for Active; 'I' for Inactive)
REMARK    1  A    between atoms: _1  and  _5
REMARK    2  A    between atoms: _5  and  _6
REMARK    3  A    between atoms: _5  and  _8
REMARK    4  A    between atoms: _8  and  _9
REMARK    5  A    between atoms: _12  and  _14
REMARK    6  A    between atoms: _14  and  _15
REMARK    7  A    between atoms: _14  and  _17
REMARK    8  A    between atoms: _20  and  _22
REMARK    9  A    between atoms: _22  and  _23
REMARK   10  A    between atoms: _22  and  _25
REMARK   11  A    between atoms: _25  and  _26
REMARK   12  A    between atoms: _29  and  _31
REMARK   13  A    between atoms: _31  and  _32
REMARK   14  A    between atoms: _31  and  _34
REMARK   15  A    between atoms: _34  and  _35
REMARK   16  A    between atoms: _38  and  _40
REMARK   17  A    between atoms: _40  and  _41
REMARK   18  A    between atoms: _40  and  _43
REMARK   19  A    between atoms: _43  and  _44
REMARK   20  A    between atoms: _47  and  _49
REMARK   21  A    between atoms: _49  and  _50
REMARK   22  A    between atoms: _49  and  _52
REMARK   23  A    between atoms: _52  and  _53
REMARK   24  A    between atoms: _53  and  _54
REMARK   25  A    between atoms: _59  and  _61
REMARK   26  A    between atoms: _61  and  _62
REMARK   27  A    between atoms: _61  and  _64
REMARK   28  A    between atoms: _64  and  _65
REMARK   29  A    between atoms: _65  and  _66
REMARK   30  A    between atoms: _66  and  _67
REMARK   31  A    between atoms: _76  and  _78
REMARK   32  A    between atoms: _78  and  _79
REMARK   33  A    between atoms: _78  and  _81
REMARK   34  A    between atoms: _81  and  _82
REMARK   35  A    between atoms: _87  and  _89
REMARK   36  A    between atoms: _89  and  _90
REMARK   37  A    between atoms: _89  and  _92
REMARK   38  A    between atoms: _92  and  _93
REMARK   39  A    between atoms: _96  and  _98
REMARK   40  A    between atoms: _98  and  _99
REMARK   41  A    between atoms: _98  and  _101
REMARK   42  A    between atoms: _101  and  _102
REMARK   43  A    between atoms: _102  and  _137
REMARK   44  A    between atoms: _103  and  _105
REMARK   45  A    between atoms: _105  and  _106
REMARK   46  A    between atoms: _108  and  _110
REMARK   47  A    between atoms: _110  and  _111
REMARK   48  A    between atoms: _114  and  _116
REMARK   49  A    between atoms: _116  and  _117
REMARK   50  A    between atoms: _120  and  _122
REMARK   51  A    between atoms: _122  and  _123
REMARK   52  A    between atoms: _122  and  _125
REMARK   53  A    between atoms: _125  and  _126
REMARK   54  A    between atoms: _131  and  _133
REMARK   55  A    between atoms: _133  and  _134
REMARK   56  A    between atoms: _133  and  _136
REMARK   57  A    between atoms: _136  and  _137
REMARK   58  A    between atoms: _138  and  _140
REMARK   59  A    between atoms: _140  and  _141
REMARK   60  A    between atoms: _140  and  _143
REMARK   61  A    between atoms: _143  and  _144
REMARK   62  A    between atoms: _150  and  _152
REMARK   63  A    between atoms: _152  and  _153
REMARK   64  A    between atoms: _152  and  _155
REMARK   65  A    between atoms: _155  and  _156
REMARK   66  A    between atoms: _161  and  _162
REMARK   67  A    between atoms: _164  and  _166
REMARK   68  A    between atoms: _166  and  _167
REMARK   69  A    between atoms: _169  and  _171
REMARK   70  A    between atoms: _171  and  _172
REMARK   71  A    between atoms: _171  and  _174
REMARK   72  A    between atoms: _177  and  _179
REMARK   73  A    between atoms: _179  and  _180
REMARK   74  A    between atoms: _183  and  _185
REMARK   75  A    between atoms: _185  and  _186
REMARK   76  A    between atoms: _185  and  _188
REMARK   77  A    between atoms: _188  and  _189
REMARK   78  A    between atoms: _192  and  _194
REMARK   79  A    between atoms: _194  and  _195
REMARK   80  A    between atoms: _194  and  _197
REMARK   81  A    between atoms: _200  and  _202
REMARK   82  A    between atoms: _202  and  _203
REMARK   83  A    between atoms: _202  and  _205
REMARK   84  A    between atoms: _205  and  _206
REMARK   85  A    between atoms: _216  and  _218
REMARK   86  A    between atoms: _218  and  _219
REMARK   87  A    between atoms: _221  and  _223
REMARK   88  A    between atoms: _223  and  _224
REMARK   89  A    between atoms: _223  and  _226
REMARK   90  A    between atoms: _226  and  _227
REMARK   91  A    between atoms: _232  and  _233
REMARK   92  A    between atoms: _235  and  _237
REMARK   93  A    between atoms: _237  and  _238
REMARK   94  A    between atoms: _237  and  _240
REMARK   95  A    between atoms: _240  and  _241
REMARK   96  A    between atoms: _241  and  _242
REMARK   97  A    between atoms: _242  and  _243
REMARK   98  A    between atoms: _243  and  _244
REMARK   99  A    between atoms: _248  and  _250
REMARK  100  A    between atoms: _250  and  _251
REMARK  101  A    between atoms: _250  and  _253
REMARK  102  A    between atoms: _253  and  _254
REMARK  103  A    between atoms: _257  and  _259
REMARK  104  A    between atoms: _259  and  _260
REMARK  105  A    between atoms: _259  and  _262
REMARK  106  A    between atoms: _262  and  _263
REMARK  107  A    between atoms: _266  and  _268
REMARK  108  A    between atoms: _268  and  _269
REMARK  109  A    between atoms: _268  and  _271
REMARK  110  A    between atoms: _271  and  _272
REMARK  111  A    between atoms: _272  and  _273
REMARK  112  A    between atoms: _273  and  _274
REMARK  113  A    between atoms: _274  and  _275
REMARK  114  A    between atoms: _279  and  _281
REMARK  115  A    between atoms: _281  and  _282
REMARK  116  A    between atoms: _281  and  _284
REMARK  117  A    between atoms: _284  and  _285
REMARK  118  A    between atoms: _288  and  _290
REMARK  119  A    between atoms: _290  and  _291
REMARK  120  A    between atoms: _290  and  _293
REMARK  121  A    between atoms: _293  and  _294
REMARK  122  A    between atoms: _294  and  _295
REMARK  123  A    between atoms: _300  and  _302
REMARK  124  A    between atoms: _302  and  _303
REMARK  125  A    between atoms: _302  and  _305
REMARK  126  A    between atoms: _305  and  _306
REMARK  127  A    between atoms: _311  and  _312
REMARK  128  A    between atoms: _314  and  _316
REMARK  129  A    between atoms: _316  and  _317
REMARK  130  A    between atoms: _316  and  _319
REMARK  131  A    between atoms: _319  and  _320
REMARK  132  A    between atoms: _323  and  _325
REMARK  133  A    between atoms: _325  and  _326
REMARK  134  A    between atoms: _325  and  _328
REMARK  135  A    between atoms: _330  and  _332
REMARK  136  A    between atoms: _332  and  _333
REMARK  137  A    between atoms: _336  and  _338
REMARK  138  A    between atoms: _338  and  _339
REMARK  139  A    between atoms: _338  and  _341
REMARK  140  A    between atoms: _341  and  _342
REMARK  141  A    between atoms: _345  and  _347
REMARK  142  A    between atoms: _347  and  _348
REMARK  143  A    between atoms: _351  and  _353
REMARK  144  A    between atoms: _353  and  _354
REMARK  145  A    between atoms: _353  and  _356
REMARK  146  A    between atoms: _356  and  _357
REMARK  147  A    between atoms: _357  and  _480
REMARK  148  A    between atoms: _358  and  _360
REMARK  149  A    between atoms: _360  and  _361
REMARK  150  A    between atoms: _360  and  _363
REMARK  151  A    between atoms: _363  and  _364
REMARK  152  A    between atoms: _364  and  _365
REMARK  153  A    between atoms: _365  and  _366
REMARK  154  A    between atoms: _366  and  _367
REMARK  155  A    between atoms: _371  and  _373
REMARK  156  A    between atoms: _373  and  _374
REMARK  157  A    between atoms: _376  and  _378
REMARK  158  A    between atoms: _378  and  _379
REMARK  159  A    between atoms: _378  and  _381
REMARK  160  A    between atoms: _381  and  _382
REMARK  161  A    between atoms: _385  and  _387
REMARK  162  A    between atoms: _387  and  _388
REMARK  163  A    between atoms: _387  and  _390
REMARK  164  A    between atoms: _390  and  _391
REMARK  165  A    between atoms: _393  and  _395
REMARK  166  A    between atoms: _395  and  _396
REMARK  167  A    between atoms: _398  and  _400
REMARK  168  A    between atoms: _400  and  _401
REMARK  169  A    between atoms: _403  and  _405
REMARK  170  A    between atoms: _405  and  _406
REMARK  171  A    between atoms: _405  and  _408
REMARK  172  A    between atoms: _408  and  _409
REMARK  173  A    between atoms: _412  and  _414
REMARK  174  A    between atoms: _414  and  _415
REMARK  175  A    between atoms: _414  and  _417
REMARK  176  A    between atoms: _417  and  _418
REMARK  177  A    between atoms: _421  and  _423
REMARK  178  A    between atoms: _423  and  _424
REMARK  179  A    between atoms: _423  and  _426
REMARK  180  A    between atoms: _426  and  _427
REMARK  181  A    between atoms: _430  and  _432
REMARK  182  A    between atoms: _432  and  _433
REMARK  183  A    between atoms: _432  and  _435
REMARK  184  A    between atoms: _435  and  _436
REMARK  185  A    between atoms: _438  and  _440
REMARK  186  A    between atoms: _440  and  _441
REMARK  187  A    between atoms: _440  and  _443
REMARK  188  A    between atoms: _443  and  _444
REMARK  189  A    between atoms: _454  and  _456
REMARK  190  A    between atoms: _456  and  _457
REMARK  191  A    between atoms: _459  and  _461
REMARK  192  A    between atoms: _461  and  _462
REMARK  193  A    between atoms: _461  and  _464
REMARK  194  A    between atoms: _464  and  _465
REMARK  195  A    between atoms: _465  and  _466
REMARK  196  A    between atoms: _469  and  _471
REMARK  197  A    between atoms: _471  and  _472
REMARK  198  A    between atoms: _474  and  _476
REMARK  199  A    between atoms: _476  and  _477
REMARK  200  A    between atoms: _476  and  _479
REMARK  201  A    between atoms: _479  and  _480
REMARK  202  A    between atoms: _481  and  _483
REMARK  203  A    between atoms: _483  and  _484
REMARK  204  A    between atoms: _487  and  _489
REMARK  205  A    between atoms: _489  and  _490
REMARK  206  A    between atoms: _489  and  _492
REMARK  207  A    between atoms: _492  and  _493
REMARK  208  A    between atoms: _493  and  _494
REMARK  209  A    between atoms: _499  and  _501
REMARK  210  A    between atoms: _501  and  _502
REMARK  211  A    between atoms: _501  and  _504
REMARK  212  A    between atoms: _504  and  _505
REMARK  213  A    between atoms: _505  and  _506
REMARK  214  A    between atoms: _506  and  _507
REMARK  215  A    between atoms: _517  and  _518
REMARK  216  A    between atoms: _523  and  _525
REMARK  217  A    between atoms: _525  and  _526
REMARK  218  A    between atoms: _528  and  _530
REMARK  219  A    between atoms: _530  and  _531
REMARK  220  A    between atoms: _530  and  _533
REMARK  221  A    between atoms: _536  and  _538
REMARK  222  A    between atoms: _538  and  _539
REMARK  223  A    between atoms: _538  and  _541
REMARK  224  A    between atoms: _541  and  _542
REMARK  225  A    between atoms: _547  and  _548
REMARK  226  A    between atoms: _550  and  _552
REMARK  227  A    between atoms: _552  and  _553
REMARK  228  A    between atoms: _552  and  _555
REMARK  229  A    between atoms: _555  and  _556
REMARK                            x       y       z     vdW  Elec       q    Type
REMARK                         _______ _______ _______ _____ _____    ______ ____
ROOT
ATOM      1  O   HOH     1      35.082 -10.859  25.381  0.00  0.00    +0.000 OA
ENDROOT
TORSDOF 0
REMARK  Name = ../refined-set-2016/4x6n/4x6n_pocket.pdb
REMARK  229 active torsions:
REMARK  status: ('A' for Active; 'I' for Inactive)
REMARK    1  A    between atoms: _1  and  _5
REMARK    2  A    between atoms: _5  and  _6
REMARK    3  A    between atoms: _5  and  _8
REMARK    4  A    between atoms: _8  and  _9
REMARK    5  A    between atoms: _12  and  _14
REMARK    6  A    between atoms: _14  and  _15
REMARK    7  A    between atoms: _14  and  _17
REMARK    8  A    between atoms: _20  and  _22
REMARK    9  A    between atoms: _22  and  _23
REMARK   10  A    between atoms: _22  and  _25
REMARK   11  A    between atoms: _25  and  _26
REMARK   12  A    between atoms: _29  and  _31
REMARK   13  A    between atoms: _31  and  _32
REMARK   14  A    between atoms: _31  and  _34
REMARK   15  A    between atoms: _34  and  _35
REMARK   16  A    between atoms: _38  and  _40
REMARK   17  A    between atoms: _40  and  _41
REMARK   18  A    between atoms: _40  and  _43
REMARK   19  A    between atoms: _43  and  _44
REMARK   20  A    between atoms: _47  and  _49
REMARK   21  A    between atoms: _49  and  _50
REMARK   22  A    between atoms: _49  and  _52
REMARK   23  A    between atoms: _52  and  _53
REMARK   24  A    between atoms: _53  and  _54
REMARK   25  A    between atoms: _59  and  _61
REMARK   26  A    between atoms: _61  and  _62
REMARK   27  A    between atoms: _61  and  _64
REMARK   28  A    between atoms: _64  and  _65
REMARK   29  A    between atoms: _65  and  _66
REMARK   30  A    between atoms: _66  and  _67
REMARK   31  A    between atoms: _76  and  _78
REMARK   32  A    between atoms: _78  and  _79
REMARK   33  A    between atoms: _78  and  _81
REMARK   34  A    between atoms: _81  and  _82
REMARK   35  A    between atoms: _87  and  _89
REMARK   36  A    between atoms: _89  and  _90
REMARK   37  A    between atoms: _89  and  _92
REMARK   38  A    between atoms: _92  and  _93
REMARK   39  A    between atoms: _96  and  _98
REMARK   40  A    between atoms: _98  and  _99
REMARK   41  A    between atoms: _98  and  _101
REMARK   42  A    between atoms: _101  and  _102
REMARK   43  A    between atoms: _102  and  _137
REMARK   44  A    between atoms: _103  and  _105
REMARK   45  A    between atoms: _105  and  _106
REMARK   46  A    between atoms: _108  and  _110
REMARK   47  A    between atoms: _110  and  _111
REMARK   48  A    between atoms: _114  and  _116
REMARK   49  A    between atoms: _116  and  _117
REMARK   50  A    between atoms: _120  and  _122
REMARK   51  A    between atoms: _122  and  _123
REMARK   52  A    between atoms: _122  and  _125
REMARK   53  A    between atoms: _125  and  _126
REMARK   54  A    between atoms: _131  and  _133
REMARK   55  A    between atoms: _133  and  _134
REMARK   56  A    between atoms: _133  and  _136
REMARK   57  A    between atoms: _136  and  _137
REMARK   58  A    between atoms: _138  and  _140
REMARK   59  A    between atoms: _140  and  _141
REMARK   60  A    between atoms: _140  and  _143
REMARK   61  A    between atoms: _143  and  _144
REMARK   62  A    between atoms: _150  and  _152
REMARK   63  A    between atoms: _152  and  _153
REMARK   64  A    between atoms: _152  and  _155
REMARK   65  A    between atoms: _155  and  _156
REMARK   66  A    between atoms: _161  and  _162
REMARK   67  A    between atoms: _164  and  _166
REMARK   68  A    between atoms: _166  and  _167
REMARK   69  A    between atoms: _169  and  _171
REMARK   70  A    between atoms: _171  and  _172
REMARK   71  A    between atoms: _171  and  _174
REMARK   72  A    between atoms: _177  and  _179
REMARK   73  A    between atoms: _179  and  _180
REMARK   74  A    between atoms: _183  and  _185
REMARK   75  A    between atoms: _185  and  _186
REMARK   76  A    between atoms: _185  and  _188
REMARK   77  A    between atoms: _188  and  _189
REMARK   78  A    between atoms: _192  and  _194
REMARK   79  A    between atoms: _194  and  _195
REMARK   80  A    between atoms: _194  and  _197
REMARK   81  A    between atoms: _200  and  _202
REMARK   82  A    between atoms: _202  and  _203
REMARK   83  A    between atoms: _202  and  _205
REMARK   84  A    between atoms: _205  and  _206
REMARK   85  A    between atoms: _216  and  _218
REMARK   86  A    between atoms: _218  and  _219
REMARK   87  A    between atoms: _221  and  _223
REMARK   88  A    between atoms: _223  and  _224
REMARK   89  A    between atoms: _223  and  _226
REMARK   90  A    between atoms: _226  and  _227
REMARK   91  A    between atoms: _232  and  _233
REMARK   92  A    between atoms: _235  and  _237
REMARK   93  A    between atoms: _237  and  _238
REMARK   94  A    between atoms: _237  and  _240
REMARK   95  A    between atoms: _240  and  _241
REMARK   96  A    between atoms: _241  and  _242
REMARK   97  A    between atoms: _242  and  _243
REMARK   98  A    between atoms: _243  and  _244
REMARK   99  A    between atoms: _248  and  _250
REMARK  100  A    between atoms: _250  and  _251
REMARK  101  A    between atoms: _250  and  _253
REMARK  102  A    between atoms: _253  and  _254
REMARK  103  A    between atoms: _257  and  _259
REMARK  104  A    between atoms: _259  and  _260
REMARK  105  A    between atoms: _259  and  _262
REMARK  106  A    between atoms: _262  and  _263
REMARK  107  A    between atoms: _266  and  _268
REMARK  108  A    between atoms: _268  and  _269
REMARK  109  A    between atoms: _268  and  _271
REMARK  110  A    between atoms: _271  and  _272
REMARK  111  A    between atoms: _272  and  _273
REMARK  112  A    between atoms: _273  and  _274
REMARK  113  A    between atoms: _274  and  _275
REMARK  114  A    between atoms: _279  and  _281
REMARK  115  A    between atoms: _281  and  _282
REMARK  116  A    between atoms: _281  and  _284
REMARK  117  A    between atoms: _284  and  _285
REMARK  118  A    between atoms: _288  and  _290
REMARK  119  A    between atoms: _290  and  _291
REMARK  120  A    between atoms: _290  and  _293
REMARK  121  A    between atoms: _293  and  _294
REMARK  122  A    between atoms: _294  and  _295
REMARK  123  A    between atoms: _300  and  _302
REMARK  124  A    between atoms: _302  and  _303
REMARK  125  A    between atoms: _302  and  _305
REMARK  126  A    between atoms: _305  and  _306
REMARK  127  A    between atoms: _311  and  _312
REMARK  128  A    between atoms: _314  and  _316
REMARK  129  A    between atoms: _316  and  _317
REMARK  130  A    between atoms: _316  and  _319
REMARK  131  A    between atoms: _319  and  _320
REMARK  132  A    between atoms: _323  and  _325
REMARK  133  A    between atoms: _325  and  _326
REMARK  134  A    between atoms: _325  and  _328
REMARK  135  A    between atoms: _330  and  _332
REMARK  136  A    between atoms: _332  and  _333
REMARK  137  A    between atoms: _336  and  _338
REMARK  138  A    between atoms: _338  and  _339
REMARK  139  A    between atoms: _338  and  _341
REMARK  140  A    between atoms: _341  and  _342
REMARK  141  A    between atoms: _345  and  _347
REMARK  142  A    between atoms: _347  and  _348
REMARK  143  A    between atoms: _351  and  _353
REMARK  144  A    between atoms: _353  and  _354
REMARK  145  A    between atoms: _353  and  _356
REMARK  146  A    between atoms: _356  and  _357
REMARK  147  A    between atoms: _357  and  _480
REMARK  148  A    between atoms: _358  and  _360
REMARK  149  A    between atoms: _360  and  _361
REMARK  150  A    between atoms: _360  and  _363
REMARK  151  A    between atoms: _363  and  _364
REMARK  152  A    between atoms: _364  and  _365
REMARK  153  A    between atoms: _365  and  _366
REMARK  154  A    between atoms: _366  and  _367
REMARK  155  A    between atoms: _371  and  _373
REMARK  156  A    between atoms: _373  and  _374
REMARK  157  A    between atoms: _376  and  _378
REMARK  158  A    between atoms: _378  and  _379
REMARK  159  A    between atoms: _378  and  _381
REMARK  160  A    between atoms: _381  and  _382
REMARK  161  A    between atoms: _385  and  _387
REMARK  162  A    between atoms: _387  and  _388
REMARK  163  A    between atoms: _387  and  _390
REMARK  164  A    between atoms: _390  and  _391
REMARK  165  A    between atoms: _393  and  _395
REMARK  166  A    between atoms: _395  and  _396
REMARK  167  A    between atoms: _398  and  _400
REMARK  168  A    between atoms: _400  and  _401
REMARK  169  A    between atoms: _403  and  _405
REMARK  170  A    between atoms: _405  and  _406
REMARK  171  A    between atoms: _405  and  _408
REMARK  172  A    between atoms: _408  and  _409
REMARK  173  A    between atoms: _412  and  _414
REMARK  174  A    between atoms: _414  and  _415
REMARK  175  A    between atoms: _414  and  _417
REMARK  176  A    between atoms: _417  and  _418
REMARK  177  A    between atoms: _421  and  _423
REMARK  178  A    between atoms: _423  and  _424
REMARK  179  A    between atoms: _423  and  _426
REMARK  180  A    between atoms: _426  and  _427
REMARK  181  A    between atoms: _430  and  _432
REMARK  182  A    between atoms: _432  and  _433
REMARK  183  A    between atoms: _432  and  _435
REMARK  184  A    between atoms: _435  and  _436
REMARK  185  A    between atoms: _438  and  _440
REMARK  186  A    between atoms: _440  and  _441
REMARK  187  A    between atoms: _440  and  _443
REMARK  188  A    between atoms: _443  and  _444
REMARK  189  A    between atoms: _454  and  _456
REMARK  190  A    between atoms: _456  and  _457
REMARK  191  A    between atoms: _459  and  _461
REMARK  192  A    between atoms: _461  and  _462
REMARK  193  A    between atoms: _461  and  _464
REMARK  194  A    between atoms: _464  and  _465
REMARK  195  A    between atoms: _465  and  _466
REMARK  196  A    between atoms: _469  and  _471
REMARK  197  A    between atoms: _471  and  _472
REMARK  198  A    between atoms: _474  and  _476
REMARK  199  A    between atoms: _476  and  _477
REMARK  200  A    between atoms: _476  and  _479
REMARK  201  A    between atoms: _479  and  _480
REMARK  202  A    between atoms: _481  and  _483
REMARK  203  A    between atoms: _483  and  _484
REMARK  204  A    between atoms: _487  and  _489
REMARK  205  A    between atoms: _489  and  _490
REMARK  206  A    between atoms: _489  and  _492
REMARK  207  A    between atoms: _492  and  _493
REMARK  208  A    between atoms: _493  and  _494
REMARK  209  A    between atoms: _499  and  _501
REMARK  210  A    between atoms: _501  and  _502
REMARK  211  A    between atoms: _501  and  _504
REMARK  212  A    between atoms: _504  and  _505
REMARK  213  A    between atoms: _505  and  _506
REMARK  214  A    between atoms: _506  and  _507
REMARK  215  A    between atoms: _517  and  _518
REMARK  216  A    between atoms: _523  and  _525
REMARK  217  A    between atoms: _525  and  _526
REMARK  218  A    between atoms: _528  and  _530
REMARK  219  A    between atoms: _530  and  _531
REMARK  220  A    between atoms: _530  and  _533
REMARK  221  A    between atoms: _536  and  _538
REMARK  222  A    between atoms: _538  and  _539
REMARK  223  A    between atoms: _538  and  _541
REMARK  224  A    between atoms: _541  and  _542
REMARK  225  A    between atoms: _547  and  _548
REMARK  226  A    between atoms: _550  and  _552
REMARK  227  A    between atoms: _552  and  _553
REMARK  228  A    between atoms: _552  and  _555
REMARK  229  A    between atoms: _555  and  _556
REMARK                            x       y       z     vdW  Elec       q    Type
REMARK                         _______ _______ _______ _____ _____    ______ ____
ROOT
ATOM      1  O   HOH     1      49.499 -29.715  32.869  0.00  0.00    +0.000 OA
ENDROOT
TORSDOF 0
REMARK  Name = ../refined-set-2016/4x6n/4x6n_pocket.pdb
REMARK  229 active torsions:
REMARK  status: ('A' for Active; 'I' for Inactive)
REMARK    1  A    between atoms: _1  and  _5
REMARK    2  A    between atoms: _5  and  _6
REMARK    3  A    between atoms: _5  and  _8
REMARK    4  A    between atoms: _8  and  _9
REMARK    5  A    between atoms: _12  and  _14
REMARK    6  A    between atoms: _14  and  _15
REMARK    7  A    between atoms: _14  and  _17
REMARK    8  A    between atoms: _20  and  _22
REMARK    9  A    between atoms: _22  and  _23
REMARK   10  A    between atoms: _22  and  _25
REMARK   11  A    between atoms: _25  and  _26
REMARK   12  A    between atoms: _29  and  _31
REMARK   13  A    between atoms: _31  and  _32
REMARK   14  A    between atoms: _31  and  _34
REMARK   15  A    between atoms: _34  and  _35
REMARK   16  A    between atoms: _38  and  _40
REMARK   17  A    between atoms: _40  and  _41
REMARK   18  A    between atoms: _40  and  _43
REMARK   19  A    between atoms: _43  and  _44
REMARK   20  A    between atoms: _47  and  _49
REMARK   21  A    between atoms: _49  and  _50
REMARK   22  A    between atoms: _49  and  _52
REMARK   23  A    between atoms: _52  and  _53
REMARK   24  A    between atoms: _53  and  _54
REMARK   25  A    between atoms: _59  and  _61
REMARK   26  A    between atoms: _61  and  _62
REMARK   27  A    between atoms: _61  and  _64
REMARK   28  A    between atoms: _64  and  _65
REMARK   29  A    between atoms: _65  and  _66
REMARK   30  A    between atoms: _66  and  _67
REMARK   31  A    between atoms: _76  and  _78
REMARK   32  A    between atoms: _78  and  _79
REMARK   33  A    between atoms: _78  and  _81
REMARK   34  A    between atoms: _81  and  _82
REMARK   35  A    between atoms: _87  and  _89
REMARK   36  A    between atoms: _89  and  _90
REMARK   37  A    between atoms: _89  and  _92
REMARK   38  A    between atoms: _92  and  _93
REMARK   39  A    between atoms: _96  and  _98
REMARK   40  A    between atoms: _98  and  _99
REMARK   41  A    between atoms: _98  and  _101
REMARK   42  A    between atoms: _101  and  _102
REMARK   43  A    between atoms: _102  and  _137
REMARK   44  A    between atoms: _103  and  _105
REMARK   45  A    between atoms: _105  and  _106
REMARK   46  A    between atoms: _108  and  _110
REMARK   47  A    between atoms: _110  and  _111
REMARK   48  A    between atoms: _114  and  _116
REMARK   49  A    between atoms: _116  and  _117
REMARK   50  A    between atoms: _120  and  _122
REMARK   51  A    between atoms: _122  and  _123
REMARK   52  A    between atoms: _122  and  _125
REMARK   53  A    between atoms: _125  and  _126
REMARK   54  A    between atoms: _131  and  _133
REMARK   55  A    between atoms: _133  and  _134
REMARK   56  A    between atoms: _133  and  _136
REMARK   57  A    between atoms: _136  and  _137
REMARK   58  A    between atoms: _138  and  _140
REMARK   59  A    between atoms: _140  and  _141
REMARK   60  A    between atoms: _140  and  _143
REMARK   61  A    between atoms: _143  and  _144
REMARK   62  A    between atoms: _150  and  _152
REMARK   63  A    between atoms: _152  and  _153
REMARK   64  A    between atoms: _152  and  _155
REMARK   65  A    between atoms: _155  and  _156
REMARK   66  A    between atoms: _161  and  _162
REMARK   67  A    between atoms: _164  and  _166
REMARK   68  A    between atoms: _166  and  _167
REMARK   69  A    between atoms: _169  and  _171
REMARK   70  A    between atoms: _171  and  _172
REMARK   71  A    between atoms: _171  and  _174
REMARK   72  A    between atoms: _177  and  _179
REMARK   73  A    between atoms: _179  and  _180
REMARK   74  A    between atoms: _183  and  _185
REMARK   75  A    between atoms: _185  and  _186
REMARK   76  A    between atoms: _185  and  _188
REMARK   77  A    between atoms: _188  and  _189
REMARK   78  A    between atoms: _192  and  _194
REMARK   79  A    between atoms: _194  and  _195
REMARK   80  A    between atoms: _194  and  _197
REMARK   81  A    between atoms: _200  and  _202
REMARK   82  A    between atoms: _202  and  _203
REMARK   83  A    between atoms: _202  and  _205
REMARK   84  A    between atoms: _205  and  _206
REMARK   85  A    between atoms: _216  and  _218
REMARK   86  A    between atoms: _218  and  _219
REMARK   87  A    between atoms: _221  and  _223
REMARK   88  A    between atoms: _223  and  _224
REMARK   89  A    between atoms: _223  and  _226
REMARK   90  A    between atoms: _226  and  _227
REMARK   91  A    between atoms: _232  and  _233
REMARK   92  A    between atoms: _235  and  _237
REMARK   93  A    between atoms: _237  and  _238
REMARK   94  A    between atoms: _237  and  _240
REMARK   95  A    between atoms: _240  and  _241
REMARK   96  A    between atoms: _241  and  _242
REMARK   97  A    between atoms: _242  and  _243
REMARK   98  A    between atoms: _243  and  _244
REMARK   99  A    between atoms: _248  and  _250
REMARK  100  A    between atoms: _250  and  _251
REMARK  101  A    between atoms: _250  and  _253
REMARK  102  A    between atoms: _253  and  _254
REMARK  103  A    between atoms: _257  and  _259
REMARK  104  A    between atoms: _259  and  _260
REMARK  105  A    between atoms: _259  and  _262
REMARK  106  A    between atoms: _262  and  _263
REMARK  107  A    between atoms: _266  and  _268
REMARK  108  A    between atoms: _268  and  _269
REMARK  109  A    between atoms: _268  and  _271
REMARK  110  A    between atoms: _271  and  _272
REMARK  111  A    between atoms: _272  and  _273
REMARK  112  A    between atoms: _273  and  _274
REMARK  113  A    between atoms: _274  and  _275
REMARK  114  A    between atoms: _279  and  _281
REMARK  115  A    between atoms: _281  and  _282
REMARK  116  A    between atoms: _281  and  _284
REMARK  117  A    between atoms: _284  and  _285
REMARK  118  A    between atoms: _288  and  _290
REMARK  119  A    between atoms: _290  and  _291
REMARK  120  A    between atoms: _290  and  _293
REMARK  121  A    between atoms: _293  and  _294
REMARK  122  A    between atoms: _294  and  _295
REMARK  123  A    between atoms: _300  and  _302
REMARK  124  A    between atoms: _302  and  _303
REMARK  125  A    between atoms: _302  and  _305
REMARK  126  A    between atoms: _305  and  _306
REMARK  127  A    between atoms: _311  and  _312
REMARK  128  A    between atoms: _314  and  _316
REMARK  129  A    between atoms: _316  and  _317
REMARK  130  A    between atoms: _316  and  _319
REMARK  131  A    between atoms: _319  and  _320
REMARK  132  A    between atoms: _323  and  _325
REMARK  133  A    between atoms: _325  and  _326
REMARK  134  A    between atoms: _325  and  _328
REMARK  135  A    between atoms: _330  and  _332
REMARK  136  A    between atoms: _332  and  _333
REMARK  137  A    between atoms: _336  and  _338
REMARK  138  A    between atoms: _338  and  _339
REMARK  139  A    between atoms: _338  and  _341
REMARK  140  A    between atoms: _341  and  _342
REMARK  141  A    between atoms: _345  and  _347
REMARK  142  A    between atoms: _347  and  _348
REMARK  143  A    between atoms: _351  and  _353
REMARK  144  A    between atoms: _353  and  _354
REMARK  145  A    between atoms: _353  and  _356
REMARK  146  A    between atoms: _356  and  _357
REMARK  147  A    between atoms: _357  and  _480
REMARK  148  A    between atoms: _358  and  _360
REMARK  149  A    between atoms: _360  and  _361
REMARK  150  A    between atoms: _360  and  _363
REMARK  151  A    between atoms: _363  and  _364
REMARK  152  A    between atoms: _364  and  _365
REMARK  153  A    between atoms: _365  and  _366
REMARK  154  A    between atoms: _366  and  _367
REMARK  155  A    between atoms: _371  and  _373
REMARK  156  A    between atoms: _373  and  _374
REMARK  157  A    between atoms: _376  and  _378
REMARK  158  A    between atoms: _378  and  _379
REMARK  159  A    between atoms: _378  and  _381
REMARK  160  A    between atoms: _381  and  _382
REMARK  161  A    between atoms: _385  and  _387
REMARK  162  A    between atoms: _387  and  _388
REMARK  163  A    between atoms: _387  and  _390
REMARK  164  A    between atoms: _390  and  _391
REMARK  165  A    between atoms: _393  and  _395
REMARK  166  A    between atoms: _395  and  _396
REMARK  167  A    between atoms: _398  and  _400
REMARK  168  A    between atoms: _400  and  _401
REMARK  169  A    between atoms: _403  and  _405
REMARK  170  A    between atoms: _405  and  _406
REMARK  171  A    between atoms: _405  and  _408
REMARK  172  A    between atoms: _408  and  _409
REMARK  173  A    between atoms: _412  and  _414
REMARK  174  A    between atoms: _414  and  _415
REMARK  175  A    between atoms: _414  and  _417
REMARK  176  A    between atoms: _417  and  _418
REMARK  177  A    between atoms: _421  and  _423
REMARK  178  A    between atoms: _423  and  _424
REMARK  179  A    between atoms: _423  and  _426
REMARK  180  A    between atoms: _426  and  _427
REMARK  181  A    between atoms: _430  and  _432
REMARK  182  A    between atoms: _432  and  _433
REMARK  183  A    between atoms: _432  and  _435
REMARK  184  A    between atoms: _435  and  _436
REMARK  185  A    between atoms: _438  and  _440
REMARK  186  A    between atoms: _440  and  _441
REMARK  187  A    between atoms: _440  and  _443
REMARK  188  A    between atoms: _443  and  _444
REMARK  189  A    between atoms: _454  and  _456
REMARK  190  A    between atoms: _456  and  _457
REMARK  191  A    between atoms: _459  and  _461
REMARK  192  A    between atoms: _461  and  _462
REMARK  193  A    between atoms: _461  and  _464
REMARK  194  A    between atoms: _464  and  _465
REMARK  195  A    between atoms: _465  and  _466
REMARK  196  A    between atoms: _469  and  _471
REMARK  197  A    between atoms: _471  and  _472
REMARK  198  A    between atoms: _474  and  _476
REMARK  199  A    between atoms: _476  and  _477
REMARK  200  A    between atoms: _476  and  _479
REMARK  201  A    between atoms: _479  and  _480
REMARK  202  A    between atoms: _481  and  _483
REMARK  203  A    between atoms: _483  and  _484
REMARK  204  A    between atoms: _487  and  _489
REMARK  205  A    between atoms: _489  and  _490
REMARK  206  A    between atoms: _489  and  _492
REMARK  207  A    between atoms: _492  and  _493
REMARK  208  A    between atoms: _493  and  _494
REMARK  209  A    between atoms: _499  and  _501
REMARK  210  A    between atoms: _501  and  _502
REMARK  211  A    between atoms: _501  and  _504
REMARK  212  A    between atoms: _504  and  _505
REMARK  213  A    between atoms: _505  and  _506
REMARK  214  A    between atoms: _506  and  _507
REMARK  215  A    between atoms: _517  and  _518
REMARK  216  A    between atoms: _523  and  _525
REMARK  217  A    between atoms: _525  and  _526
REMARK  218  A    between atoms: _528  and  _530
REMARK  219  A    between atoms: _530  and  _531
REMARK  220  A    between atoms: _530  and  _533
REMARK  221  A    between atoms: _536  and  _538
REMARK  222  A    between atoms: _538  and  _539
REMARK  223  A    between atoms: _538  and  _541
REMARK  224  A    between atoms: _541  and  _542
REMARK  225  A    between atoms: _547  and  _548
REMARK  226  A    between atoms: _550  and  _552
REMARK  227  A    between atoms: _552  and  _553
REMARK  228  A    between atoms: _552  and  _555
REMARK  229  A    between atoms: _555  and  _556
REMARK                            x       y       z     vdW  Elec       q    Type
REMARK                         _______ _______ _______ _____ _____    ______ ____
ROOT
ATOM      1  O   HOH     1      51.349 -23.599  31.099  0.00  0.00    +0.000 OA
ENDROOT
TORSDOF 0
REMARK  Name = ../refined-set-2016/4x6n/4x6n_pocket.pdb
REMARK  229 active torsions:
REMARK  status: ('A' for Active; 'I' for Inactive)
REMARK    1  A    between atoms: _1  and  _5
REMARK    2  A    between atoms: _5  and  _6
REMARK    3  A    between atoms: _5  and  _8
REMARK    4  A    between atoms: _8  and  _9
REMARK    5  A    between atoms: _12  and  _14
REMARK    6  A    between atoms: _14  and  _15
REMARK    7  A    between atoms: _14  and  _17
REMARK    8  A    between atoms: _20  and  _22
REMARK    9  A    between atoms: _22  and  _23
REMARK   10  A    between atoms: _22  and  _25
REMARK   11  A    between atoms: _25  and  _26
REMARK   12  A    between atoms: _29  and  _31
REMARK   13  A    between atoms: _31  and  _32
REMARK   14  A    between atoms: _31  and  _34
REMARK   15  A    between atoms: _34  and  _35
REMARK   16  A    between atoms: _38  and  _40
REMARK   17  A    between atoms: _40  and  _41
REMARK   18  A    between atoms: _40  and  _43
REMARK   19  A    between atoms: _43  and  _44
REMARK   20  A    between atoms: _47  and  _49
REMARK   21  A    between atoms: _49  and  _50
REMARK   22  A    between atoms: _49  and  _52
REMARK   23  A    between atoms: _52  and  _53
REMARK   24  A    between atoms: _53  and  _54
REMARK   25  A    between atoms: _59  and  _61
REMARK   26  A    between atoms: _61  and  _62
REMARK   27  A    between atoms: _61  and  _64
REMARK   28  A    between atoms: _64  and  _65
REMARK   29  A    between atoms: _65  and  _66
REMARK   30  A    between atoms: _66  and  _67
REMARK   31  A    between atoms: _76  and  _78
REMARK   32  A    between atoms: _78  and  _79
REMARK   33  A    between atoms: _78  and  _81
REMARK   34  A    between atoms: _81  and  _82
REMARK   35  A    between atoms: _87  and  _89
REMARK   36  A    between atoms: _89  and  _90
REMARK   37  A    between atoms: _89  and  _92
REMARK   38  A    between atoms: _92  and  _93
REMARK   39  A    between atoms: _96  and  _98
REMARK   40  A    between atoms: _98  and  _99
REMARK   41  A    between atoms: _98  and  _101
REMARK   42  A    between atoms: _101  and  _102
REMARK   43  A    between atoms: _102  and  _137
REMARK   44  A    between atoms: _103  and  _105
REMARK   45  A    between atoms: _105  and  _106
REMARK   46  A    between atoms: _108  and  _110
REMARK   47  A    between atoms: _110  and  _111
REMARK   48  A    between atoms: _114  and  _116
REMARK   49  A    between atoms: _116  and  _117
REMARK   50  A    between atoms: _120  and  _122
REMARK   51  A    between atoms: _122  and  _123
REMARK   52  A    between atoms: _122  and  _125
REMARK   53  A    between atoms: _125  and  _126
REMARK   54  A    between atoms: _131  and  _133
REMARK   55  A    between atoms: _133  and  _134
REMARK   56  A    between atoms: _133  and  _136
REMARK   57  A    between atoms: _136  and  _137
REMARK   58  A    between atoms: _138  and  _140
REMARK   59  A    between atoms: _140  and  _141
REMARK   60  A    between atoms: _140  and  _143
REMARK   61  A    between atoms: _143  and  _144
REMARK   62  A    between atoms: _150  and  _152
REMARK   63  A    between atoms: _152  and  _153
REMARK   64  A    between atoms: _152  and  _155
REMARK   65  A    between atoms: _155  and  _156
REMARK   66  A    between atoms: _161  and  _162
REMARK   67  A    between atoms: _164  and  _166
REMARK   68  A    between atoms: _166  and  _167
REMARK   69  A    between atoms: _169  and  _171
REMARK   70  A    between atoms: _171  and  _172
REMARK   71  A    between atoms: _171  and  _174
REMARK   72  A    between atoms: _177  and  _179
REMARK   73  A    between atoms: _179  and  _180
REMARK   74  A    between atoms: _183  and  _185
REMARK   75  A    between atoms: _185  and  _186
REMARK   76  A    between atoms: _185  and  _188
REMARK   77  A    between atoms: _188  and  _189
REMARK   78  A    between atoms: _192  and  _194
REMARK   79  A    between atoms: _194  and  _195
REMARK   80  A    between atoms: _194  and  _197
REMARK   81  A    between atoms: _200  and  _202
REMARK   82  A    between atoms: _202  and  _203
REMARK   83  A    between atoms: _202  and  _205
REMARK   84  A    between atoms: _205  and  _206
REMARK   85  A    between atoms: _216  and  _218
REMARK   86  A    between atoms: _218  and  _219
REMARK   87  A    between atoms: _221  and  _223
REMARK   88  A    between atoms: _223  and  _224
REMARK   89  A    between atoms: _223  and  _226
REMARK   90  A    between atoms: _226  and  _227
REMARK   91  A    between atoms: _232  and  _233
REMARK   92  A    between atoms: _235  and  _237
REMARK   93  A    between atoms: _237  and  _238
REMARK   94  A    between atoms: _237  and  _240
REMARK   95  A    between atoms: _240  and  _241
REMARK   96  A    between atoms: _241  and  _242
REMARK   97  A    between atoms: _242  and  _243
REMARK   98  A    between atoms: _243  and  _244
REMARK   99  A    between atoms: _248  and  _250
REMARK  100  A    between atoms: _250  and  _251
REMARK  101  A    between atoms: _250  and  _253
REMARK  102  A    between atoms: _253  and  _254
REMARK  103  A    between atoms: _257  and  _259
REMARK  104  A    between atoms: _259  and  _260
REMARK  105  A    between atoms: _259  and  _262
REMARK  106  A    between atoms: _262  and  _263
REMARK  107  A    between atoms: _266  and  _268
REMARK  108  A    between atoms: _268  and  _269
REMARK  109  A    between atoms: _268  and  _271
REMARK  110  A    between atoms: _271  and  _272
REMARK  111  A    between atoms: _272  and  _273
REMARK  112  A    between atoms: _273  and  _274
REMARK  113  A    between atoms: _274  and  _275
REMARK  114  A    between atoms: _279  and  _281
REMARK  115  A    between atoms: _281  and  _282
REMARK  116  A    between atoms: _281  and  _284
REMARK  117  A    between atoms: _284  and  _285
REMARK  118  A    between atoms: _288  and  _290
REMARK  119  A    between atoms: _290  and  _291
REMARK  120  A    between atoms: _290  and  _293
REMARK  121  A    between atoms: _293  and  _294
REMARK  122  A    between atoms: _294  and  _295
REMARK  123  A    between atoms: _300  and  _302
REMARK  124  A    between atoms: _302  and  _303
REMARK  125  A    between atoms: _302  and  _305
REMARK  126  A    between atoms: _305  and  _306
REMARK  127  A    between atoms: _311  and  _312
REMARK  128  A    between atoms: _314  and  _316
REMARK  129  A    between atoms: _316  and  _317
REMARK  130  A    between atoms: _316  and  _319
REMARK  131  A    between atoms: _319  and  _320
REMARK  132  A    between atoms: _323  and  _325
REMARK  133  A    between atoms: _325  and  _326
REMARK  134  A    between atoms: _325  and  _328
REMARK  135  A    between atoms: _330  and  _332
REMARK  136  A    between atoms: _332  and  _333
REMARK  137  A    between atoms: _336  and  _338
REMARK  138  A    between atoms: _338  and  _339
REMARK  139  A    between atoms: _338  and  _341
REMARK  140  A    between atoms: _341  and  _342
REMARK  141  A    between atoms: _345  and  _347
REMARK  142  A    between atoms: _347  and  _348
REMARK  143  A    between atoms: _351  and  _353
REMARK  144  A    between atoms: _353  and  _354
REMARK  145  A    between atoms: _353  and  _356
REMARK  146  A    between atoms: _356  and  _357
REMARK  147  A    between atoms: _357  and  _480
REMARK  148  A    between atoms: _358  and  _360
REMARK  149  A    between atoms: _360  and  _361
REMARK  150  A    between atoms: _360  and  _363
REMARK  151  A    between atoms: _363  and  _364
REMARK  152  A    between atoms: _364  and  _365
REMARK  153  A    between atoms: _365  and  _366
REMARK  154  A    between atoms: _366  and  _367
REMARK  155  A    between atoms: _371  and  _373
REMARK  156  A    between atoms: _373  and  _374
REMARK  157  A    between atoms: _376  and  _378
REMARK  158  A    between atoms: _378  and  _379
REMARK  159  A    between atoms: _378  and  _381
REMARK  160  A    between atoms: _381  and  _382
REMARK  161  A    between atoms: _385  and  _387
REMARK  162  A    between atoms: _387  and  _388
REMARK  163  A    between atoms: _387  and  _390
REMARK  164  A    between atoms: _390  and  _391
REMARK  165  A    between atoms: _393  and  _395
REMARK  166  A    between atoms: _395  and  _396
REMARK  167  A    between atoms: _398  and  _400
REMARK  168  A    between atoms: _400  and  _401
REMARK  169  A    between atoms: _403  and  _405
REMARK  170  A    between atoms: _405  and  _406
REMARK  171  A    between atoms: _405  and  _408
REMARK  172  A    between atoms: _408  and  _409
REMARK  173  A    between atoms: _412  and  _414
REMARK  174  A    between atoms: _414  and  _415
REMARK  175  A    between atoms: _414  and  _417
REMARK  176  A    between atoms: _417  and  _418
REMARK  177  A    between atoms: _421  and  _423
REMARK  178  A    between atoms: _423  and  _424
REMARK  179  A    between atoms: _423  and  _426
REMARK  180  A    between atoms: _426  and  _427
REMARK  181  A    between atoms: _430  and  _432
REMARK  182  A    between atoms: _432  and  _433
REMARK  183  A    between atoms: _432  and  _435
REMARK  184  A    between atoms: _435  and  _436
REMARK  185  A    between atoms: _438  and  _440
REMARK  186  A    between atoms: _440  and  _441
REMARK  187  A    between atoms: _440  and  _443
REMARK  188  A    between atoms: _443  and  _444
REMARK  189  A    between atoms: _454  and  _456
REMARK  190  A    between atoms: _456  and  _457
REMARK  191  A    between atoms: _459  and  _461
REMARK  192  A    between atoms: _461  and  _462
REMARK  193  A    between atoms: _461  and  _464
REMARK  194  A    between atoms: _464  and  _465
REMARK  195  A    between atoms: _465  and  _466
REMARK  196  A    between atoms: _469  and  _471
REMARK  197  A    between atoms: _471  and  _472
REMARK  198  A    between atoms: _474  and  _476
REMARK  199  A    between atoms: _476  and  _477
REMARK  200  A    between atoms: _476  and  _479
REMARK  201  A    between atoms: _479  and  _480
REMARK  202  A    between atoms: _481  and  _483
REMARK  203  A    between atoms: _483  and  _484
REMARK  204  A    between atoms: _487  and  _489
REMARK  205  A    between atoms: _489  and  _490
REMARK  206  A    between atoms: _489  and  _492
REMARK  207  A    between atoms: _492  and  _493
REMARK  208  A    between atoms: _493  and  _494
REMARK  209  A    between atoms: _499  and  _501
REMARK  210  A    between atoms: _501  and  _502
REMARK  211  A    between atoms: _501  and  _504
REMARK  212  A    between atoms: _504  and  _505
REMARK  213  A    between atoms: _505  and  _506
REMARK  214  A    between atoms: _506  and  _507
REMARK  215  A    between atoms: _517  and  _518
REMARK  216  A    between atoms: _523  and  _525
REMARK  217  A    between atoms: _525  and  _526
REMARK  218  A    between atoms: _528  and  _530
REMARK  219  A    between atoms: _530  and  _531
REMARK  220  A    between atoms: _530  and  _533
REMARK  221  A    between atoms: _536  and  _538
REMARK  222  A    between atoms: _538  and  _539
REMARK  223  A    between atoms: _538  and  _541
REMARK  224  A    between atoms: _541  and  _542
REMARK  225  A    between atoms: _547  and  _548
REMARK  226  A    between atoms: _550  and  _552
REMARK  227  A    between atoms: _552  and  _553
REMARK  228  A    between atoms: _552  and  _555
REMARK  229  A    between atoms: _555  and  _556
REMARK                            x       y       z     vdW  Elec       q    Type
REMARK                         _______ _______ _______ _____ _____    ______ ____
ROOT
ATOM      1  O   HOH     1      33.269  -9.462  30.994  0.00  0.00    +0.000 OA
ENDROOT
TORSDOF 0
REMARK  Name = ../refined-set-2016/4x6n/4x6n_pocket.pdb
REMARK  229 active torsions:
REMARK  status: ('A' for Active; 'I' for Inactive)
REMARK    1  A    between atoms: _1  and  _5
REMARK    2  A    between atoms: _5  and  _6
REMARK    3  A    between atoms: _5  and  _8
REMARK    4  A    between atoms: _8  and  _9
REMARK    5  A    between atoms: _12  and  _14
REMARK    6  A    between atoms: _14  and  _15
REMARK    7  A    between atoms: _14  and  _17
REMARK    8  A    between atoms: _20  and  _22
REMARK    9  A    between atoms: _22  and  _23
REMARK   10  A    between atoms: _22  and  _25
REMARK   11  A    between atoms: _25  and  _26
REMARK   12  A    between atoms: _29  and  _31
REMARK   13  A    between atoms: _31  and  _32
REMARK   14  A    between atoms: _31  and  _34
REMARK   15  A    between atoms: _34  and  _35
REMARK   16  A    between atoms: _38  and  _40
REMARK   17  A    between atoms: _40  and  _41
REMARK   18  A    between atoms: _40  and  _43
REMARK   19  A    between atoms: _43  and  _44
REMARK   20  A    between atoms: _47  and  _49
REMARK   21  A    between atoms: _49  and  _50
REMARK   22  A    between atoms: _49  and  _52
REMARK   23  A    between atoms: _52  and  _53
REMARK   24  A    between atoms: _53  and  _54
REMARK   25  A    between atoms: _59  and  _61
REMARK   26  A    between atoms: _61  and  _62
REMARK   27  A    between atoms: _61  and  _64
REMARK   28  A    between atoms: _64  and  _65
REMARK   29  A    between atoms: _65  and  _66
REMARK   30  A    between atoms: _66  and  _67
REMARK   31  A    between atoms: _76  and  _78
REMARK   32  A    between atoms: _78  and  _79
REMARK   33  A    between atoms: _78  and  _81
REMARK   34  A    between atoms: _81  and  _82
REMARK   35  A    between atoms: _87  and  _89
REMARK   36  A    between atoms: _89  and  _90
REMARK   37  A    between atoms: _89  and  _92
REMARK   38  A    between atoms: _92  and  _93
REMARK   39  A    between atoms: _96  and  _98
REMARK   40  A    between atoms: _98  and  _99
REMARK   41  A    between atoms: _98  and  _101
REMARK   42  A    between atoms: _101  and  _102
REMARK   43  A    between atoms: _102  and  _137
REMARK   44  A    between atoms: _103  and  _105
REMARK   45  A    between atoms: _105  and  _106
REMARK   46  A    between atoms: _108  and  _110
REMARK   47  A    between atoms: _110  and  _111
REMARK   48  A    between atoms: _114  and  _116
REMARK   49  A    between atoms: _116  and  _117
REMARK   50  A    between atoms: _120  and  _122
REMARK   51  A    between atoms: _122  and  _123
REMARK   52  A    between atoms: _122  and  _125
REMARK   53  A    between atoms: _125  and  _126
REMARK   54  A    between atoms: _131  and  _133
REMARK   55  A    between atoms: _133  and  _134
REMARK   56  A    between atoms: _133  and  _136
REMARK   57  A    between atoms: _136  and  _137
REMARK   58  A    between atoms: _138  and  _140
REMARK   59  A    between atoms: _140  and  _141
REMARK   60  A    between atoms: _140  and  _143
REMARK   61  A    between atoms: _143  and  _144
REMARK   62  A    between atoms: _150  and  _152
REMARK   63  A    between atoms: _152  and  _153
REMARK   64  A    between atoms: _152  and  _155
REMARK   65  A    between atoms: _155  and  _156
REMARK   66  A    between atoms: _161  and  _162
REMARK   67  A    between atoms: _164  and  _166
REMARK   68  A    between atoms: _166  and  _167
REMARK   69  A    between atoms: _169  and  _171
REMARK   70  A    between atoms: _171  and  _172
REMARK   71  A    between atoms: _171  and  _174
REMARK   72  A    between atoms: _177  and  _179
REMARK   73  A    between atoms: _179  and  _180
REMARK   74  A    between atoms: _183  and  _185
REMARK   75  A    between atoms: _185  and  _186
REMARK   76  A    between atoms: _185  and  _188
REMARK   77  A    between atoms: _188  and  _189
REMARK   78  A    between atoms: _192  and  _194
REMARK   79  A    between atoms: _194  and  _195
REMARK   80  A    between atoms: _194  and  _197
REMARK   81  A    between atoms: _200  and  _202
REMARK   82  A    between atoms: _202  and  _203
REMARK   83  A    between atoms: _202  and  _205
REMARK   84  A    between atoms: _205  and  _206
REMARK   85  A    between atoms: _216  and  _218
REMARK   86  A    between atoms: _218  and  _219
REMARK   87  A    between atoms: _221  and  _223
REMARK   88  A    between atoms: _223  and  _224
REMARK   89  A    between atoms: _223  and  _226
REMARK   90  A    between atoms: _226  and  _227
REMARK   91  A    between atoms: _232  and  _233
REMARK   92  A    between atoms: _235  and  _237
REMARK   93  A    between atoms: _237  and  _238
REMARK   94  A    between atoms: _237  and  _240
REMARK   95  A    between atoms: _240  and  _241
REMARK   96  A    between atoms: _241  and  _242
REMARK   97  A    between atoms: _242  and  _243
REMARK   98  A    between atoms: _243  and  _244
REMARK   99  A    between atoms: _248  and  _250
REMARK  100  A    between atoms: _250  and  _251
REMARK  101  A    between atoms: _250  and  _253
REMARK  102  A    between atoms: _253  and  _254
REMARK  103  A    between atoms: _257  and  _259
REMARK  104  A    between atoms: _259  and  _260
REMARK  105  A    between atoms: _259  and  _262
REMARK  106  A    between atoms: _262  and  _263
REMARK  107  A    between atoms: _266  and  _268
REMARK  108  A    between atoms: _268  and  _269
REMARK  109  A    between atoms: _268  and  _271
REMARK  110  A    between atoms: _271  and  _272
REMARK  111  A    between atoms: _272  and  _273
REMARK  112  A    between atoms: _273  and  _274
REMARK  113  A    between atoms: _274  and  _275
REMARK  114  A    between atoms: _279  and  _281
REMARK  115  A    between atoms: _281  and  _282
REMARK  116  A    between atoms: _281  and  _284
REMARK  117  A    between atoms: _284  and  _285
REMARK  118  A    between atoms: _288  and  _290
REMARK  119  A    between atoms: _290  and  _291
REMARK  120  A    between atoms: _290  and  _293
REMARK  121  A    between atoms: _293  and  _294
REMARK  122  A    between atoms: _294  and  _295
REMARK  123  A    between atoms: _300  and  _302
REMARK  124  A    between atoms: _302  and  _303
REMARK  125  A    between atoms: _302  and  _305
REMARK  126  A    between atoms: _305  and  _306
REMARK  127  A    between atoms: _311  and  _312
REMARK  128  A    between atoms: _314  and  _316
REMARK  129  A    between atoms: _316  and  _317
REMARK  130  A    between atoms: _316  and  _319
REMARK  131  A    between atoms: _319  and  _320
REMARK  132  A    between atoms: _323  and  _325
REMARK  133  A    between atoms: _325  and  _326
REMARK  134  A    between atoms: _325  and  _328
REMARK  135  A    between atoms: _330  and  _332
REMARK  136  A    between atoms: _332  and  _333
REMARK  137  A    between atoms: _336  and  _338
REMARK  138  A    between atoms: _338  and  _339
REMARK  139  A    between atoms: _338  and  _341
REMARK  140  A    between atoms: _341  and  _342
REMARK  141  A    between atoms: _345  and  _347
REMARK  142  A    between atoms: _347  and  _348
REMARK  143  A    between atoms: _351  and  _353
REMARK  144  A    between atoms: _353  and  _354
REMARK  145  A    between atoms: _353  and  _356
REMARK  146  A    between atoms: _356  and  _357
REMARK  147  A    between atoms: _357  and  _480
REMARK  148  A    between atoms: _358  and  _360
REMARK  149  A    between atoms: _360  and  _361
REMARK  150  A    between atoms: _360  and  _363
REMARK  151  A    between atoms: _363  and  _364
REMARK  152  A    between atoms: _364  and  _365
REMARK  153  A    between atoms: _365  and  _366
REMARK  154  A    between atoms: _366  and  _367
REMARK  155  A    between atoms: _371  and  _373
REMARK  156  A    between atoms: _373  and  _374
REMARK  157  A    between atoms: _376  and  _378
REMARK  158  A    between atoms: _378  and  _379
REMARK  159  A    between atoms: _378  and  _381
REMARK  160  A    between atoms: _381  and  _382
REMARK  161  A    between atoms: _385  and  _387
REMARK  162  A    between atoms: _387  and  _388
REMARK  163  A    between atoms: _387  and  _390
REMARK  164  A    between atoms: _390  and  _391
REMARK  165  A    between atoms: _393  and  _395
REMARK  166  A    between atoms: _395  and  _396
REMARK  167  A    between atoms: _398  and  _400
REMARK  168  A    between atoms: _400  and  _401
REMARK  169  A    between atoms: _403  and  _405
REMARK  170  A    between atoms: _405  and  _406
REMARK  171  A    between atoms: _405  and  _408
REMARK  172  A    between atoms: _408  and  _409
REMARK  173  A    between atoms: _412  and  _414
REMARK  174  A    between atoms: _414  and  _415
REMARK  175  A    between atoms: _414  and  _417
REMARK  176  A    between atoms: _417  and  _418
REMARK  177  A    between atoms: _421  and  _423
REMARK  178  A    between atoms: _423  and  _424
REMARK  179  A    between atoms: _423  and  _426
REMARK  180  A    between atoms: _426  and  _427
REMARK  181  A    between atoms: _430  and  _432
REMARK  182  A    between atoms: _432  and  _433
REMARK  183  A    between atoms: _432  and  _435
REMARK  184  A    between atoms: _435  and  _436
REMARK  185  A    between atoms: _438  and  _440
REMARK  186  A    between atoms: _440  and  _441
REMARK  187  A    between atoms: _440  and  _443
REMARK  188  A    between atoms: _443  and  _444
REMARK  189  A    between atoms: _454  and  _456
REMARK  190  A    between atoms: _456  and  _457
REMARK  191  A    between atoms: _459  and  _461
REMARK  192  A    between atoms: _461  and  _462
REMARK  193  A    between atoms: _461  and  _464
REMARK  194  A    between atoms: _464  and  _465
REMARK  195  A    between atoms: _465  and  _466
REMARK  196  A    between atoms: _469  and  _471
REMARK  197  A    between atoms: _471  and  _472
REMARK  198  A    between atoms: _474  and  _476
REMARK  199  A    between atoms: _476  and  _477
REMARK  200  A    between atoms: _476  and  _479
REMARK  201  A    between atoms: _479  and  _480
REMARK  202  A    between atoms: _481  and  _483
REMARK  203  A    between atoms: _483  and  _484
REMARK  204  A    between atoms: _487  and  _489
REMARK  205  A    between atoms: _489  and  _490
REMARK  206  A    between atoms: _489  and  _492
REMARK  207  A    between atoms: _492  and  _493
REMARK  208  A    between atoms: _493  and  _494
REMARK  209  A    between atoms: _499  and  _501
REMARK  210  A    between atoms: _501  and  _502
REMARK  211  A    between atoms: _501  and  _504
REMARK  212  A    between atoms: _504  and  _505
REMARK  213  A    between atoms: _505  and  _506
REMARK  214  A    between atoms: _506  and  _507
REMARK  215  A    between atoms: _517  and  _518
REMARK  216  A    between atoms: _523  and  _525
REMARK  217  A    between atoms: _525  and  _526
REMARK  218  A    between atoms: _528  and  _530
REMARK  219  A    between atoms: _530  and  _531
REMARK  220  A    between atoms: _530  and  _533
REMARK  221  A    between atoms: _536  and  _538
REMARK  222  A    between atoms: _538  and  _539
REMARK  223  A    between atoms: _538  and  _541
REMARK  224  A    between atoms: _541  and  _542
REMARK  225  A    between atoms: _547  and  _548
REMARK  226  A    between atoms: _550  and  _552
REMARK  227  A    between atoms: _552  and  _553
REMARK  228  A    between atoms: _552  and  _555
REMARK  229  A    between atoms: _555  and  _556
REMARK                            x       y       z     vdW  Elec       q    Type
REMARK                         _______ _______ _______ _____ _____    ______ ____
ROOT
ATOM      1  O   HOH     1      51.603 -18.347  38.564  0.00  0.00    +0.000 OA
ENDROOT
TORSDOF 0
REMARK  Name = ../refined-set-2016/4x6n/4x6n_pocket.pdb
REMARK  229 active torsions:
REMARK  status: ('A' for Active; 'I' for Inactive)
REMARK    1  A    between atoms: _1  and  _5
REMARK    2  A    between atoms: _5  and  _6
REMARK    3  A    between atoms: _5  and  _8
REMARK    4  A    between atoms: _8  and  _9
REMARK    5  A    between atoms: _12  and  _14
REMARK    6  A    between atoms: _14  and  _15
REMARK    7  A    between atoms: _14  and  _17
REMARK    8  A    between atoms: _20  and  _22
REMARK    9  A    between atoms: _22  and  _23
REMARK   10  A    between atoms: _22  and  _25
REMARK   11  A    between atoms: _25  and  _26
REMARK   12  A    between atoms: _29  and  _31
REMARK   13  A    between atoms: _31  and  _32
REMARK   14  A    between atoms: _31  and  _34
REMARK   15  A    between atoms: _34  and  _35
REMARK   16  A    between atoms: _38  and  _40
REMARK   17  A    between atoms: _40  and  _41
REMARK   18  A    between atoms: _40  and  _43
REMARK   19  A    between atoms: _43  and  _44
REMARK   20  A    between atoms: _47  and  _49
REMARK   21  A    between atoms: _49  and  _50
REMARK   22  A    between atoms: _49  and  _52
REMARK   23  A    between atoms: _52  and  _53
REMARK   24  A    between atoms: _53  and  _54
REMARK   25  A    between atoms: _59  and  _61
REMARK   26  A    between atoms: _61  and  _62
REMARK   27  A    between atoms: _61  and  _64
REMARK   28  A    between atoms: _64  and  _65
REMARK   29  A    between atoms: _65  and  _66
REMARK   30  A    between atoms: _66  and  _67
REMARK   31  A    between atoms: _76  and  _78
REMARK   32  A    between atoms: _78  and  _79
REMARK   33  A    between atoms: _78  and  _81
REMARK   34  A    between atoms: _81  and  _82
REMARK   35  A    between atoms: _87  and  _89
REMARK   36  A    between atoms: _89  and  _90
REMARK   37  A    between atoms: _89  and  _92
REMARK   38  A    between atoms: _92  and  _93
REMARK   39  A    between atoms: _96  and  _98
REMARK   40  A    between atoms: _98  and  _99
REMARK   41  A    between atoms: _98  and  _101
REMARK   42  A    between atoms: _101  and  _102
REMARK   43  A    between atoms: _102  and  _137
REMARK   44  A    between atoms: _103  and  _105
REMARK   45  A    between atoms: _105  and  _106
REMARK   46  A    between atoms: _108  and  _110
REMARK   47  A    between atoms: _110  and  _111
REMARK   48  A    between atoms: _114  and  _116
REMARK   49  A    between atoms: _116  and  _117
REMARK   50  A    between atoms: _120  and  _122
REMARK   51  A    between atoms: _122  and  _123
REMARK   52  A    between atoms: _122  and  _125
REMARK   53  A    between atoms: _125  and  _126
REMARK   54  A    between atoms: _131  and  _133
REMARK   55  A    between atoms: _133  and  _134
REMARK   56  A    between atoms: _133  and  _136
REMARK   57  A    between atoms: _136  and  _137
REMARK   58  A    between atoms: _138  and  _140
REMARK   59  A    between atoms: _140  and  _141
REMARK   60  A    between atoms: _140  and  _143
REMARK   61  A    between atoms: _143  and  _144
REMARK   62  A    between atoms: _150  and  _152
REMARK   63  A    between atoms: _152  and  _153
REMARK   64  A    between atoms: _152  and  _155
REMARK   65  A    between atoms: _155  and  _156
REMARK   66  A    between atoms: _161  and  _162
REMARK   67  A    between atoms: _164  and  _166
REMARK   68  A    between atoms: _166  and  _167
REMARK   69  A    between atoms: _169  and  _171
REMARK   70  A    between atoms: _171  and  _172
REMARK   71  A    between atoms: _171  and  _174
REMARK   72  A    between atoms: _177  and  _179
REMARK   73  A    between atoms: _179  and  _180
REMARK   74  A    between atoms: _183  and  _185
REMARK   75  A    between atoms: _185  and  _186
REMARK   76  A    between atoms: _185  and  _188
REMARK   77  A    between atoms: _188  and  _189
REMARK   78  A    between atoms: _192  and  _194
REMARK   79  A    between atoms: _194  and  _195
REMARK   80  A    between atoms: _194  and  _197
REMARK   81  A    between atoms: _200  and  _202
REMARK   82  A    between atoms: _202  and  _203
REMARK   83  A    between atoms: _202  and  _205
REMARK   84  A    between atoms: _205  and  _206
REMARK   85  A    between atoms: _216  and  _218
REMARK   86  A    between atoms: _218  and  _219
REMARK   87  A    between atoms: _221  and  _223
REMARK   88  A    between atoms: _223  and  _224
REMARK   89  A    between atoms: _223  and  _226
REMARK   90  A    between atoms: _226  and  _227
REMARK   91  A    between atoms: _232  and  _233
REMARK   92  A    between atoms: _235  and  _237
REMARK   93  A    between atoms: _237  and  _238
REMARK   94  A    between atoms: _237  and  _240
REMARK   95  A    between atoms: _240  and  _241
REMARK   96  A    between atoms: _241  and  _242
REMARK   97  A    between atoms: _242  and  _243
REMARK   98  A    between atoms: _243  and  _244
REMARK   99  A    between atoms: _248  and  _250
REMARK  100  A    between atoms: _250  and  _251
REMARK  101  A    between atoms: _250  and  _253
REMARK  102  A    between atoms: _253  and  _254
REMARK  103  A    between atoms: _257  and  _259
REMARK  104  A    between atoms: _259  and  _260
REMARK  105  A    between atoms: _259  and  _262
REMARK  106  A    between atoms: _262  and  _263
REMARK  107  A    between atoms: _266  and  _268
REMARK  108  A    between atoms: _268  and  _269
REMARK  109  A    between atoms: _268  and  _271
REMARK  110  A    between atoms: _271  and  _272
REMARK  111  A    between atoms: _272  and  _273
REMARK  112  A    between atoms: _273  and  _274
REMARK  113  A    between atoms: _274  and  _275
REMARK  114  A    between atoms: _279  and  _281
REMARK  115  A    between atoms: _281  and  _282
REMARK  116  A    between atoms: _281  and  _284
REMARK  117  A    between atoms: _284  and  _285
REMARK  118  A    between atoms: _288  and  _290
REMARK  119  A    between atoms: _290  and  _291
REMARK  120  A    between atoms: _290  and  _293
REMARK  121  A    between atoms: _293  and  _294
REMARK  122  A    between atoms: _294  and  _295
REMARK  123  A    between atoms: _300  and  _302
REMARK  124  A    between atoms: _302  and  _303
REMARK  125  A    between atoms: _302  and  _305
REMARK  126  A    between atoms: _305  and  _306
REMARK  127  A    between atoms: _311  and  _312
REMARK  128  A    between atoms: _314  and  _316
REMARK  129  A    between atoms: _316  and  _317
REMARK  130  A    between atoms: _316  and  _319
REMARK  131  A    between atoms: _319  and  _320
REMARK  132  A    between atoms: _323  and  _325
REMARK  133  A    between atoms: _325  and  _326
REMARK  134  A    between atoms: _325  and  _328
REMARK  135  A    between atoms: _330  and  _332
REMARK  136  A    between atoms: _332  and  _333
REMARK  137  A    between atoms: _336  and  _338
REMARK  138  A    between atoms: _338  and  _339
REMARK  139  A    between atoms: _338  and  _341
REMARK  140  A    between atoms: _341  and  _342
REMARK  141  A    between atoms: _345  and  _347
REMARK  142  A    between atoms: _347  and  _348
REMARK  143  A    between atoms: _351  and  _353
REMARK  144  A    between atoms: _353  and  _354
REMARK  145  A    between atoms: _353  and  _356
REMARK  146  A    between atoms: _356  and  _357
REMARK  147  A    between atoms: _357  and  _480
REMARK  148  A    between atoms: _358  and  _360
REMARK  149  A    between atoms: _360  and  _361
REMARK  150  A    between atoms: _360  and  _363
REMARK  151  A    between atoms: _363  and  _364
REMARK  152  A    between atoms: _364  and  _365
REMARK  153  A    between atoms: _365  and  _366
REMARK  154  A    between atoms: _366  and  _367
REMARK  155  A    between atoms: _371  and  _373
REMARK  156  A    between atoms: _373  and  _374
REMARK  157  A    between atoms: _376  and  _378
REMARK  158  A    between atoms: _378  and  _379
REMARK  159  A    between atoms: _378  and  _381
REMARK  160  A    between atoms: _381  and  _382
REMARK  161  A    between atoms: _385  and  _387
REMARK  162  A    between atoms: _387  and  _388
REMARK  163  A    between atoms: _387  and  _390
REMARK  164  A    between atoms: _390  and  _391
REMARK  165  A    between atoms: _393  and  _395
REMARK  166  A    between atoms: _395  and  _396
REMARK  167  A    between atoms: _398  and  _400
REMARK  168  A    between atoms: _400  and  _401
REMARK  169  A    between atoms: _403  and  _405
REMARK  170  A    between atoms: _405  and  _406
REMARK  171  A    between atoms: _405  and  _408
REMARK  172  A    between atoms: _408  and  _409
REMARK  173  A    between atoms: _412  and  _414
REMARK  174  A    between atoms: _414  and  _415
REMARK  175  A    between atoms: _414  and  _417
REMARK  176  A    between atoms: _417  and  _418
REMARK  177  A    between atoms: _421  and  _423
REMARK  178  A    between atoms: _423  and  _424
REMARK  179  A    between atoms: _423  and  _426
REMARK  180  A    between atoms: _426  and  _427
REMARK  181  A    between atoms: _430  and  _432
REMARK  182  A    between atoms: _432  and  _433
REMARK  183  A    between atoms: _432  and  _435
REMARK  184  A    between atoms: _435  and  _436
REMARK  185  A    between atoms: _438  and  _440
REMARK  186  A    between atoms: _440  and  _441
REMARK  187  A    between atoms: _440  and  _443
REMARK  188  A    between atoms: _443  and  _444
REMARK  189  A    between atoms: _454  and  _456
REMARK  190  A    between atoms: _456  and  _457
REMARK  191  A    between atoms: _459  and  _461
REMARK  192  A    between atoms: _461  and  _462
REMARK  193  A    between atoms: _461  and  _464
REMARK  194  A    between atoms: _464  and  _465
REMARK  195  A    between atoms: _465  and  _466
REMARK  196  A    between atoms: _469  and  _471
REMARK  197  A    between atoms: _471  and  _472
REMARK  198  A    between atoms: _474  and  _476
REMARK  199  A    between atoms: _476  and  _477
REMARK  200  A    between atoms: _476  and  _479
REMARK  201  A    between atoms: _479  and  _480
REMARK  202  A    between atoms: _481  and  _483
REMARK  203  A    between atoms: _483  and  _484
REMARK  204  A    between atoms: _487  and  _489
REMARK  205  A    between atoms: _489  and  _490
REMARK  206  A    between atoms: _489  and  _492
REMARK  207  A    between atoms: _492  and  _493
REMARK  208  A    between atoms: _493  and  _494
REMARK  209  A    between atoms: _499  and  _501
REMARK  210  A    between atoms: _501  and  _502
REMARK  211  A    between atoms: _501  and  _504
REMARK  212  A    between atoms: _504  and  _505
REMARK  213  A    between atoms: _505  and  _506
REMARK  214  A    between atoms: _506  and  _507
REMARK  215  A    between atoms: _517  and  _518
REMARK  216  A    between atoms: _523  and  _525
REMARK  217  A    between atoms: _525  and  _526
REMARK  218  A    between atoms: _528  and  _530
REMARK  219  A    between atoms: _530  and  _531
REMARK  220  A    between atoms: _530  and  _533
REMARK  221  A    between atoms: _536  and  _538
REMARK  222  A    between atoms: _538  and  _539
REMARK  223  A    between atoms: _538  and  _541
REMARK  224  A    between atoms: _541  and  _542
REMARK  225  A    between atoms: _547  and  _548
REMARK  226  A    between atoms: _550  and  _552
REMARK  227  A    between atoms: _552  and  _553
REMARK  228  A    between atoms: _552  and  _555
REMARK  229  A    between atoms: _555  and  _556
REMARK                            x       y       z     vdW  Elec       q    Type
REMARK                         _______ _______ _______ _____ _____    ______ ____
ROOT
ATOM      1  O   HOH     1      45.737 -25.046  29.153  0.00  0.00    +0.000 OA
ENDROOT
TORSDOF 0
REMARK  Name = ../refined-set-2016/4x6n/4x6n_pocket.pdb
REMARK  229 active torsions:
REMARK  status: ('A' for Active; 'I' for Inactive)
REMARK    1  A    between atoms: _1  and  _5
REMARK    2  A    between atoms: _5  and  _6
REMARK    3  A    between atoms: _5  and  _8
REMARK    4  A    between atoms: _8  and  _9
REMARK    5  A    between atoms: _12  and  _14
REMARK    6  A    between atoms: _14  and  _15
REMARK    7  A    between atoms: _14  and  _17
REMARK    8  A    between atoms: _20  and  _22
REMARK    9  A    between atoms: _22  and  _23
REMARK   10  A    between atoms: _22  and  _25
REMARK   11  A    between atoms: _25  and  _26
REMARK   12  A    between atoms: _29  and  _31
REMARK   13  A    between atoms: _31  and  _32
REMARK   14  A    between atoms: _31  and  _34
REMARK   15  A    between atoms: _34  and  _35
REMARK   16  A    between atoms: _38  and  _40
REMARK   17  A    between atoms: _40  and  _41
REMARK   18  A    between atoms: _40  and  _43
REMARK   19  A    between atoms: _43  and  _44
REMARK   20  A    between atoms: _47  and  _49
REMARK   21  A    between atoms: _49  and  _50
REMARK   22  A    between atoms: _49  and  _52
REMARK   23  A    between atoms: _52  and  _53
REMARK   24  A    between atoms: _53  and  _54
REMARK   25  A    between atoms: _59  and  _61
REMARK   26  A    between atoms: _61  and  _62
REMARK   27  A    between atoms: _61  and  _64
REMARK   28  A    between atoms: _64  and  _65
REMARK   29  A    between atoms: _65  and  _66
REMARK   30  A    between atoms: _66  and  _67
REMARK   31  A    between atoms: _76  and  _78
REMARK   32  A    between atoms: _78  and  _79
REMARK   33  A    between atoms: _78  and  _81
REMARK   34  A    between atoms: _81  and  _82
REMARK   35  A    between atoms: _87  and  _89
REMARK   36  A    between atoms: _89  and  _90
REMARK   37  A    between atoms: _89  and  _92
REMARK   38  A    between atoms: _92  and  _93
REMARK   39  A    between atoms: _96  and  _98
REMARK   40  A    between atoms: _98  and  _99
REMARK   41  A    between atoms: _98  and  _101
REMARK   42  A    between atoms: _101  and  _102
REMARK   43  A    between atoms: _102  and  _137
REMARK   44  A    between atoms: _103  and  _105
REMARK   45  A    between atoms: _105  and  _106
REMARK   46  A    between atoms: _108  and  _110
REMARK   47  A    between atoms: _110  and  _111
REMARK   48  A    between atoms: _114  and  _116
REMARK   49  A    between atoms: _116  and  _117
REMARK   50  A    between atoms: _120  and  _122
REMARK   51  A    between atoms: _122  and  _123
REMARK   52  A    between atoms: _122  and  _125
REMARK   53  A    between atoms: _125  and  _126
REMARK   54  A    between atoms: _131  and  _133
REMARK   55  A    between atoms: _133  and  _134
REMARK   56  A    between atoms: _133  and  _136
REMARK   57  A    between atoms: _136  and  _137
REMARK   58  A    between atoms: _138  and  _140
REMARK   59  A    between atoms: _140  and  _141
REMARK   60  A    between atoms: _140  and  _143
REMARK   61  A    between atoms: _143  and  _144
REMARK   62  A    between atoms: _150  and  _152
REMARK   63  A    between atoms: _152  and  _153
REMARK   64  A    between atoms: _152  and  _155
REMARK   65  A    between atoms: _155  and  _156
REMARK   66  A    between atoms: _161  and  _162
REMARK   67  A    between atoms: _164  and  _166
REMARK   68  A    between atoms: _166  and  _167
REMARK   69  A    between atoms: _169  and  _171
REMARK   70  A    between atoms: _171  and  _172
REMARK   71  A    between atoms: _171  and  _174
REMARK   72  A    between atoms: _177  and  _179
REMARK   73  A    between atoms: _179  and  _180
REMARK   74  A    between atoms: _183  and  _185
REMARK   75  A    between atoms: _185  and  _186
REMARK   76  A    between atoms: _185  and  _188
REMARK   77  A    between atoms: _188  and  _189
REMARK   78  A    between atoms: _192  and  _194
REMARK   79  A    between atoms: _194  and  _195
REMARK   80  A    between atoms: _194  and  _197
REMARK   81  A    between atoms: _200  and  _202
REMARK   82  A    between atoms: _202  and  _203
REMARK   83  A    between atoms: _202  and  _205
REMARK   84  A    between atoms: _205  and  _206
REMARK   85  A    between atoms: _216  and  _218
REMARK   86  A    between atoms: _218  and  _219
REMARK   87  A    between atoms: _221  and  _223
REMARK   88  A    between atoms: _223  and  _224
REMARK   89  A    between atoms: _223  and  _226
REMARK   90  A    between atoms: _226  and  _227
REMARK   91  A    between atoms: _232  and  _233
REMARK   92  A    between atoms: _235  and  _237
REMARK   93  A    between atoms: _237  and  _238
REMARK   94  A    between atoms: _237  and  _240
REMARK   95  A    between atoms: _240  and  _241
REMARK   96  A    between atoms: _241  and  _242
REMARK   97  A    between atoms: _242  and  _243
REMARK   98  A    between atoms: _243  and  _244
REMARK   99  A    between atoms: _248  and  _250
REMARK  100  A    between atoms: _250  and  _251
REMARK  101  A    between atoms: _250  and  _253
REMARK  102  A    between atoms: _253  and  _254
REMARK  103  A    between atoms: _257  and  _259
REMARK  104  A    between atoms: _259  and  _260
REMARK  105  A    between atoms: _259  and  _262
REMARK  106  A    between atoms: _262  and  _263
REMARK  107  A    between atoms: _266  and  _268
REMARK  108  A    between atoms: _268  and  _269
REMARK  109  A    between atoms: _268  and  _271
REMARK  110  A    between atoms: _271  and  _272
REMARK  111  A    between atoms: _272  and  _273
REMARK  112  A    between atoms: _273  and  _274
REMARK  113  A    between atoms: _274  and  _275
REMARK  114  A    between atoms: _279  and  _281
REMARK  115  A    between atoms: _281  and  _282
REMARK  116  A    between atoms: _281  and  _284
REMARK  117  A    between atoms: _284  and  _285
REMARK  118  A    between atoms: _288  and  _290
REMARK  119  A    between atoms: _290  and  _291
REMARK  120  A    between atoms: _290  and  _293
REMARK  121  A    between atoms: _293  and  _294
REMARK  122  A    between atoms: _294  and  _295
REMARK  123  A    between atoms: _300  and  _302
REMARK  124  A    between atoms: _302  and  _303
REMARK  125  A    between atoms: _302  and  _305
REMARK  126  A    between atoms: _305  and  _306
REMARK  127  A    between atoms: _311  and  _312
REMARK  128  A    between atoms: _314  and  _316
REMARK  129  A    between atoms: _316  and  _317
REMARK  130  A    between atoms: _316  and  _319
REMARK  131  A    between atoms: _319  and  _320
REMARK  132  A    between atoms: _323  and  _325
REMARK  133  A    between atoms: _325  and  _326
REMARK  134  A    between atoms: _325  and  _328
REMARK  135  A    between atoms: _330  and  _332
REMARK  136  A    between atoms: _332  and  _333
REMARK  137  A    between atoms: _336  and  _338
REMARK  138  A    between atoms: _338  and  _339
REMARK  139  A    between atoms: _338  and  _341
REMARK  140  A    between atoms: _341  and  _342
REMARK  141  A    between atoms: _345  and  _347
REMARK  142  A    between atoms: _347  and  _348
REMARK  143  A    between atoms: _351  and  _353
REMARK  144  A    between atoms: _353  and  _354
REMARK  145  A    between atoms: _353  and  _356
REMARK  146  A    between atoms: _356  and  _357
REMARK  147  A    between atoms: _357  and  _480
REMARK  148  A    between atoms: _358  and  _360
REMARK  149  A    between atoms: _360  and  _361
REMARK  150  A    between atoms: _360  and  _363
REMARK  151  A    between atoms: _363  and  _364
REMARK  152  A    between atoms: _364  and  _365
REMARK  153  A    between atoms: _365  and  _366
REMARK  154  A    between atoms: _366  and  _367
REMARK  155  A    between atoms: _371  and  _373
REMARK  156  A    between atoms: _373  and  _374
REMARK  157  A    between atoms: _376  and  _378
REMARK  158  A    between atoms: _378  and  _379
REMARK  159  A    between atoms: _378  and  _381
REMARK  160  A    between atoms: _381  and  _382
REMARK  161  A    between atoms: _385  and  _387
REMARK  162  A    between atoms: _387  and  _388
REMARK  163  A    between atoms: _387  and  _390
REMARK  164  A    between atoms: _390  and  _391
REMARK  165  A    between atoms: _393  and  _395
REMARK  166  A    between atoms: _395  and  _396
REMARK  167  A    between atoms: _398  and  _400
REMARK  168  A    between atoms: _400  and  _401
REMARK  169  A    between atoms: _403  and  _405
REMARK  170  A    between atoms: _405  and  _406
REMARK  171  A    between atoms: _405  and  _408
REMARK  172  A    between atoms: _408  and  _409
REMARK  173  A    between atoms: _412  and  _414
REMARK  174  A    between atoms: _414  and  _415
REMARK  175  A    between atoms: _414  and  _417
REMARK  176  A    between atoms: _417  and  _418
REMARK  177  A    between atoms: _421  and  _423
REMARK  178  A    between atoms: _423  and  _424
REMARK  179  A    between atoms: _423  and  _426
REMARK  180  A    between atoms: _426  and  _427
REMARK  181  A    between atoms: _430  and  _432
REMARK  182  A    between atoms: _432  and  _433
REMARK  183  A    between atoms: _432  and  _435
REMARK  184  A    between atoms: _435  and  _436
REMARK  185  A    between atoms: _438  and  _440
REMARK  186  A    between atoms: _440  and  _441
REMARK  187  A    between atoms: _440  and  _443
REMARK  188  A    between atoms: _443  and  _444
REMARK  189  A    between atoms: _454  and  _456
REMARK  190  A    between atoms: _456  and  _457
REMARK  191  A    between atoms: _459  and  _461
REMARK  192  A    between atoms: _461  and  _462
REMARK  193  A    between atoms: _461  and  _464
REMARK  194  A    between atoms: _464  and  _465
REMARK  195  A    between atoms: _465  and  _466
REMARK  196  A    between atoms: _469  and  _471
REMARK  197  A    between atoms: _471  and  _472
REMARK  198  A    between atoms: _474  and  _476
REMARK  199  A    between atoms: _476  and  _477
REMARK  200  A    between atoms: _476  and  _479
REMARK  201  A    between atoms: _479  and  _480
REMARK  202  A    between atoms: _481  and  _483
REMARK  203  A    between atoms: _483  and  _484
REMARK  204  A    between atoms: _487  and  _489
REMARK  205  A    between atoms: _489  and  _490
REMARK  206  A    between atoms: _489  and  _492
REMARK  207  A    between atoms: _492  and  _493
REMARK  208  A    between atoms: _493  and  _494
REMARK  209  A    between atoms: _499  and  _501
REMARK  210  A    between atoms: _501  and  _502
REMARK  211  A    between atoms: _501  and  _504
REMARK  212  A    between atoms: _504  and  _505
REMARK  213  A    between atoms: _505  and  _506
REMARK  214  A    between atoms: _506  and  _507
REMARK  215  A    between atoms: _517  and  _518
REMARK  216  A    between atoms: _523  and  _525
REMARK  217  A    between atoms: _525  and  _526
REMARK  218  A    between atoms: _528  and  _530
REMARK  219  A    between atoms: _530  and  _531
REMARK  220  A    between atoms: _530  and  _533
REMARK  221  A    between atoms: _536  and  _538
REMARK  222  A    between atoms: _538  and  _539
REMARK  223  A    between atoms: _538  and  _541
REMARK  224  A    between atoms: _541  and  _542
REMARK  225  A    between atoms: _547  and  _548
REMARK  226  A    between atoms: _550  and  _552
REMARK  227  A    between atoms: _552  and  _553
REMARK  228  A    between atoms: _552  and  _555
REMARK  229  A    between atoms: _555  and  _556
REMARK                            x       y       z     vdW  Elec       q    Type
REMARK                         _______ _______ _______ _____ _____    ______ ____
ROOT
ATOM      1  O   HOH     1      51.940 -28.294  31.154  0.00  0.00    +0.000 OA
ENDROOT
TORSDOF 0
REMARK  Name = ../refined-set-2016/4x6n/4x6n_pocket.pdb
REMARK  229 active torsions:
REMARK  status: ('A' for Active; 'I' for Inactive)
REMARK    1  A    between atoms: _1  and  _5
REMARK    2  A    between atoms: _5  and  _6
REMARK    3  A    between atoms: _5  and  _8
REMARK    4  A    between atoms: _8  and  _9
REMARK    5  A    between atoms: _12  and  _14
REMARK    6  A    between atoms: _14  and  _15
REMARK    7  A    between atoms: _14  and  _17
REMARK    8  A    between atoms: _20  and  _22
REMARK    9  A    between atoms: _22  and  _23
REMARK   10  A    between atoms: _22  and  _25
REMARK   11  A    between atoms: _25  and  _26
REMARK   12  A    between atoms: _29  and  _31
REMARK   13  A    between atoms: _31  and  _32
REMARK   14  A    between atoms: _31  and  _34
REMARK   15  A    between atoms: _34  and  _35
REMARK   16  A    between atoms: _38  and  _40
REMARK   17  A    between atoms: _40  and  _41
REMARK   18  A    between atoms: _40  and  _43
REMARK   19  A    between atoms: _43  and  _44
REMARK   20  A    between atoms: _47  and  _49
REMARK   21  A    between atoms: _49  and  _50
REMARK   22  A    between atoms: _49  and  _52
REMARK   23  A    between atoms: _52  and  _53
REMARK   24  A    between atoms: _53  and  _54
REMARK   25  A    between atoms: _59  and  _61
REMARK   26  A    between atoms: _61  and  _62
REMARK   27  A    between atoms: _61  and  _64
REMARK   28  A    between atoms: _64  and  _65
REMARK   29  A    between atoms: _65  and  _66
REMARK   30  A    between atoms: _66  and  _67
REMARK   31  A    between atoms: _76  and  _78
REMARK   32  A    between atoms: _78  and  _79
REMARK   33  A    between atoms: _78  and  _81
REMARK   34  A    between atoms: _81  and  _82
REMARK   35  A    between atoms: _87  and  _89
REMARK   36  A    between atoms: _89  and  _90
REMARK   37  A    between atoms: _89  and  _92
REMARK   38  A    between atoms: _92  and  _93
REMARK   39  A    between atoms: _96  and  _98
REMARK   40  A    between atoms: _98  and  _99
REMARK   41  A    between atoms: _98  and  _101
REMARK   42  A    between atoms: _101  and  _102
REMARK   43  A    between atoms: _102  and  _137
REMARK   44  A    between atoms: _103  and  _105
REMARK   45  A    between atoms: _105  and  _106
REMARK   46  A    between atoms: _108  and  _110
REMARK   47  A    between atoms: _110  and  _111
REMARK   48  A    between atoms: _114  and  _116
REMARK   49  A    between atoms: _116  and  _117
REMARK   50  A    between atoms: _120  and  _122
REMARK   51  A    between atoms: _122  and  _123
REMARK   52  A    between atoms: _122  and  _125
REMARK   53  A    between atoms: _125  and  _126
REMARK   54  A    between atoms: _131  and  _133
REMARK   55  A    between atoms: _133  and  _134
REMARK   56  A    between atoms: _133  and  _136
REMARK   57  A    between atoms: _136  and  _137
REMARK   58  A    between atoms: _138  and  _140
REMARK   59  A    between atoms: _140  and  _141
REMARK   60  A    between atoms: _140  and  _143
REMARK   61  A    between atoms: _143  and  _144
REMARK   62  A    between atoms: _150  and  _152
REMARK   63  A    between atoms: _152  and  _153
REMARK   64  A    between atoms: _152  and  _155
REMARK   65  A    between atoms: _155  and  _156
REMARK   66  A    between atoms: _161  and  _162
REMARK   67  A    between atoms: _164  and  _166
REMARK   68  A    between atoms: _166  and  _167
REMARK   69  A    between atoms: _169  and  _171
REMARK   70  A    between atoms: _171  and  _172
REMARK   71  A    between atoms: _171  and  _174
REMARK   72  A    between atoms: _177  and  _179
REMARK   73  A    between atoms: _179  and  _180
REMARK   74  A    between atoms: _183  and  _185
REMARK   75  A    between atoms: _185  and  _186
REMARK   76  A    between atoms: _185  and  _188
REMARK   77  A    between atoms: _188  and  _189
REMARK   78  A    between atoms: _192  and  _194
REMARK   79  A    between atoms: _194  and  _195
REMARK   80  A    between atoms: _194  and  _197
REMARK   81  A    between atoms: _200  and  _202
REMARK   82  A    between atoms: _202  and  _203
REMARK   83  A    between atoms: _202  and  _205
REMARK   84  A    between atoms: _205  and  _206
REMARK   85  A    between atoms: _216  and  _218
REMARK   86  A    between atoms: _218  and  _219
REMARK   87  A    between atoms: _221  and  _223
REMARK   88  A    between atoms: _223  and  _224
REMARK   89  A    between atoms: _223  and  _226
REMARK   90  A    between atoms: _226  and  _227
REMARK   91  A    between atoms: _232  and  _233
REMARK   92  A    between atoms: _235  and  _237
REMARK   93  A    between atoms: _237  and  _238
REMARK   94  A    between atoms: _237  and  _240
REMARK   95  A    between atoms: _240  and  _241
REMARK   96  A    between atoms: _241  and  _242
REMARK   97  A    between atoms: _242  and  _243
REMARK   98  A    between atoms: _243  and  _244
REMARK   99  A    between atoms: _248  and  _250
REMARK  100  A    between atoms: _250  and  _251
REMARK  101  A    between atoms: _250  and  _253
REMARK  102  A    between atoms: _253  and  _254
REMARK  103  A    between atoms: _257  and  _259
REMARK  104  A    between atoms: _259  and  _260
REMARK  105  A    between atoms: _259  and  _262
REMARK  106  A    between atoms: _262  and  _263
REMARK  107  A    between atoms: _266  and  _268
REMARK  108  A    between atoms: _268  and  _269
REMARK  109  A    between atoms: _268  and  _271
REMARK  110  A    between atoms: _271  and  _272
REMARK  111  A    between atoms: _272  and  _273
REMARK  112  A    between atoms: _273  and  _274
REMARK  113  A    between atoms: _274  and  _275
REMARK  114  A    between atoms: _279  and  _281
REMARK  115  A    between atoms: _281  and  _282
REMARK  116  A    between atoms: _281  and  _284
REMARK  117  A    between atoms: _284  and  _285
REMARK  118  A    between atoms: _288  and  _290
REMARK  119  A    between atoms: _290  and  _291
REMARK  120  A    between atoms: _290  and  _293
REMARK  121  A    between atoms: _293  and  _294
REMARK  122  A    between atoms: _294  and  _295
REMARK  123  A    between atoms: _300  and  _302
REMARK  124  A    between atoms: _302  and  _303
REMARK  125  A    between atoms: _302  and  _305
REMARK  126  A    between atoms: _305  and  _306
REMARK  127  A    between atoms: _311  and  _312
REMARK  128  A    between atoms: _314  and  _316
REMARK  129  A    between atoms: _316  and  _317
REMARK  130  A    between atoms: _316  and  _319
REMARK  131  A    between atoms: _319  and  _320
REMARK  132  A    between atoms: _323  and  _325
REMARK  133  A    between atoms: _325  and  _326
REMARK  134  A    between atoms: _325  and  _328
REMARK  135  A    between atoms: _330  and  _332
REMARK  136  A    between atoms: _332  and  _333
REMARK  137  A    between atoms: _336  and  _338
REMARK  138  A    between atoms: _338  and  _339
REMARK  139  A    between atoms: _338  and  _341
REMARK  140  A    between atoms: _341  and  _342
REMARK  141  A    between atoms: _345  and  _347
REMARK  142  A    between atoms: _347  and  _348
REMARK  143  A    between atoms: _351  and  _353
REMARK  144  A    between atoms: _353  and  _354
REMARK  145  A    between atoms: _353  and  _356
REMARK  146  A    between atoms: _356  and  _357
REMARK  147  A    between atoms: _357  and  _480
REMARK  148  A    between atoms: _358  and  _360
REMARK  149  A    between atoms: _360  and  _361
REMARK  150  A    between atoms: _360  and  _363
REMARK  151  A    between atoms: _363  and  _364
REMARK  152  A    between atoms: _364  and  _365
REMARK  153  A    between atoms: _365  and  _366
REMARK  154  A    between atoms: _366  and  _367
REMARK  155  A    between atoms: _371  and  _373
REMARK  156  A    between atoms: _373  and  _374
REMARK  157  A    between atoms: _376  and  _378
REMARK  158  A    between atoms: _378  and  _379
REMARK  159  A    between atoms: _378  and  _381
REMARK  160  A    between atoms: _381  and  _382
REMARK  161  A    between atoms: _385  and  _387
REMARK  162  A    between atoms: _387  and  _388
REMARK  163  A    between atoms: _387  and  _390
REMARK  164  A    between atoms: _390  and  _391
REMARK  165  A    between atoms: _393  and  _395
REMARK  166  A    between atoms: _395  and  _396
REMARK  167  A    between atoms: _398  and  _400
REMARK  168  A    between atoms: _400  and  _401
REMARK  169  A    between atoms: _403  and  _405
REMARK  170  A    between atoms: _405  and  _406
REMARK  171  A    between atoms: _405  and  _408
REMARK  172  A    between atoms: _408  and  _409
REMARK  173  A    between atoms: _412  and  _414
REMARK  174  A    between atoms: _414  and  _415
REMARK  175  A    between atoms: _414  and  _417
REMARK  176  A    between atoms: _417  and  _418
REMARK  177  A    between atoms: _421  and  _423
REMARK  178  A    between atoms: _423  and  _424
REMARK  179  A    between atoms: _423  and  _426
REMARK  180  A    between atoms: _426  and  _427
REMARK  181  A    between atoms: _430  and  _432
REMARK  182  A    between atoms: _432  and  _433
REMARK  183  A    between atoms: _432  and  _435
REMARK  184  A    between atoms: _435  and  _436
REMARK  185  A    between atoms: _438  and  _440
REMARK  186  A    between atoms: _440  and  _441
REMARK  187  A    between atoms: _440  and  _443
REMARK  188  A    between atoms: _443  and  _444
REMARK  189  A    between atoms: _454  and  _456
REMARK  190  A    between atoms: _456  and  _457
REMARK  191  A    between atoms: _459  and  _461
REMARK  192  A    between atoms: _461  and  _462
REMARK  193  A    between atoms: _461  and  _464
REMARK  194  A    between atoms: _464  and  _465
REMARK  195  A    between atoms: _465  and  _466
REMARK  196  A    between atoms: _469  and  _471
REMARK  197  A    between atoms: _471  and  _472
REMARK  198  A    between atoms: _474  and  _476
REMARK  199  A    between atoms: _476  and  _477
REMARK  200  A    between atoms: _476  and  _479
REMARK  201  A    between atoms: _479  and  _480
REMARK  202  A    between atoms: _481  and  _483
REMARK  203  A    between atoms: _483  and  _484
REMARK  204  A    between atoms: _487  and  _489
REMARK  205  A    between atoms: _489  and  _490
REMARK  206  A    between atoms: _489  and  _492
REMARK  207  A    between atoms: _492  and  _493
REMARK  208  A    between atoms: _493  and  _494
REMARK  209  A    between atoms: _499  and  _501
REMARK  210  A    between atoms: _501  and  _502
REMARK  211  A    between atoms: _501  and  _504
REMARK  212  A    between atoms: _504  and  _505
REMARK  213  A    between atoms: _505  and  _506
REMARK  214  A    between atoms: _506  and  _507
REMARK  215  A    between atoms: _517  and  _518
REMARK  216  A    between atoms: _523  and  _525
REMARK  217  A    between atoms: _525  and  _526
REMARK  218  A    between atoms: _528  and  _530
REMARK  219  A    between atoms: _530  and  _531
REMARK  220  A    between atoms: _530  and  _533
REMARK  221  A    between atoms: _536  and  _538
REMARK  222  A    between atoms: _538  and  _539
REMARK  223  A    between atoms: _538  and  _541
REMARK  224  A    between atoms: _541  and  _542
REMARK  225  A    between atoms: _547  and  _548
REMARK  226  A    between atoms: _550  and  _552
REMARK  227  A    between atoms: _552  and  _553
REMARK  228  A    between atoms: _552  and  _555
REMARK  229  A    between atoms: _555  and  _556
REMARK                            x       y       z     vdW  Elec       q    Type
REMARK                         _______ _______ _______ _____ _____    ______ ____
ROOT
ATOM      1  O   HOH     1      51.170 -22.219  34.680  0.00  0.00    +0.000 OA
ENDROOT
TORSDOF 0
REMARK  Name = ../refined-set-2016/4x6n/4x6n_pocket.pdb
REMARK  229 active torsions:
REMARK  status: ('A' for Active; 'I' for Inactive)
REMARK    1  A    between atoms: _1  and  _5
REMARK    2  A    between atoms: _5  and  _6
REMARK    3  A    between atoms: _5  and  _8
REMARK    4  A    between atoms: _8  and  _9
REMARK    5  A    between atoms: _12  and  _14
REMARK    6  A    between atoms: _14  and  _15
REMARK    7  A    between atoms: _14  and  _17
REMARK    8  A    between atoms: _20  and  _22
REMARK    9  A    between atoms: _22  and  _23
REMARK   10  A    between atoms: _22  and  _25
REMARK   11  A    between atoms: _25  and  _26
REMARK   12  A    between atoms: _29  and  _31
REMARK   13  A    between atoms: _31  and  _32
REMARK   14  A    between atoms: _31  and  _34
REMARK   15  A    between atoms: _34  and  _35
REMARK   16  A    between atoms: _38  and  _40
REMARK   17  A    between atoms: _40  and  _41
REMARK   18  A    between atoms: _40  and  _43
REMARK   19  A    between atoms: _43  and  _44
REMARK   20  A    between atoms: _47  and  _49
REMARK   21  A    between atoms: _49  and  _50
REMARK   22  A    between atoms: _49  and  _52
REMARK   23  A    between atoms: _52  and  _53
REMARK   24  A    between atoms: _53  and  _54
REMARK   25  A    between atoms: _59  and  _61
REMARK   26  A    between atoms: _61  and  _62
REMARK   27  A    between atoms: _61  and  _64
REMARK   28  A    between atoms: _64  and  _65
REMARK   29  A    between atoms: _65  and  _66
REMARK   30  A    between atoms: _66  and  _67
REMARK   31  A    between atoms: _76  and  _78
REMARK   32  A    between atoms: _78  and  _79
REMARK   33  A    between atoms: _78  and  _81
REMARK   34  A    between atoms: _81  and  _82
REMARK   35  A    between atoms: _87  and  _89
REMARK   36  A    between atoms: _89  and  _90
REMARK   37  A    between atoms: _89  and  _92
REMARK   38  A    between atoms: _92  and  _93
REMARK   39  A    between atoms: _96  and  _98
REMARK   40  A    between atoms: _98  and  _99
REMARK   41  A    between atoms: _98  and  _101
REMARK   42  A    between atoms: _101  and  _102
REMARK   43  A    between atoms: _102  and  _137
REMARK   44  A    between atoms: _103  and  _105
REMARK   45  A    between atoms: _105  and  _106
REMARK   46  A    between atoms: _108  and  _110
REMARK   47  A    between atoms: _110  and  _111
REMARK   48  A    between atoms: _114  and  _116
REMARK   49  A    between atoms: _116  and  _117
REMARK   50  A    between atoms: _120  and  _122
REMARK   51  A    between atoms: _122  and  _123
REMARK   52  A    between atoms: _122  and  _125
REMARK   53  A    between atoms: _125  and  _126
REMARK   54  A    between atoms: _131  and  _133
REMARK   55  A    between atoms: _133  and  _134
REMARK   56  A    between atoms: _133  and  _136
REMARK   57  A    between atoms: _136  and  _137
REMARK   58  A    between atoms: _138  and  _140
REMARK   59  A    between atoms: _140  and  _141
REMARK   60  A    between atoms: _140  and  _143
REMARK   61  A    between atoms: _143  and  _144
REMARK   62  A    between atoms: _150  and  _152
REMARK   63  A    between atoms: _152  and  _153
REMARK   64  A    between atoms: _152  and  _155
REMARK   65  A    between atoms: _155  and  _156
REMARK   66  A    between atoms: _161  and  _162
REMARK   67  A    between atoms: _164  and  _166
REMARK   68  A    between atoms: _166  and  _167
REMARK   69  A    between atoms: _169  and  _171
REMARK   70  A    between atoms: _171  and  _172
REMARK   71  A    between atoms: _171  and  _174
REMARK   72  A    between atoms: _177  and  _179
REMARK   73  A    between atoms: _179  and  _180
REMARK   74  A    between atoms: _183  and  _185
REMARK   75  A    between atoms: _185  and  _186
REMARK   76  A    between atoms: _185  and  _188
REMARK   77  A    between atoms: _188  and  _189
REMARK   78  A    between atoms: _192  and  _194
REMARK   79  A    between atoms: _194  and  _195
REMARK   80  A    between atoms: _194  and  _197
REMARK   81  A    between atoms: _200  and  _202
REMARK   82  A    between atoms: _202  and  _203
REMARK   83  A    between atoms: _202  and  _205
REMARK   84  A    between atoms: _205  and  _206
REMARK   85  A    between atoms: _216  and  _218
REMARK   86  A    between atoms: _218  and  _219
REMARK   87  A    between atoms: _221  and  _223
REMARK   88  A    between atoms: _223  and  _224
REMARK   89  A    between atoms: _223  and  _226
REMARK   90  A    between atoms: _226  and  _227
REMARK   91  A    between atoms: _232  and  _233
REMARK   92  A    between atoms: _235  and  _237
REMARK   93  A    between atoms: _237  and  _238
REMARK   94  A    between atoms: _237  and  _240
REMARK   95  A    between atoms: _240  and  _241
REMARK   96  A    between atoms: _241  and  _242
REMARK   97  A    between atoms: _242  and  _243
REMARK   98  A    between atoms: _243  and  _244
REMARK   99  A    between atoms: _248  and  _250
REMARK  100  A    between atoms: _250  and  _251
REMARK  101  A    between atoms: _250  and  _253
REMARK  102  A    between atoms: _253  and  _254
REMARK  103  A    between atoms: _257  and  _259
REMARK  104  A    between atoms: _259  and  _260
REMARK  105  A    between atoms: _259  and  _262
REMARK  106  A    between atoms: _262  and  _263
REMARK  107  A    between atoms: _266  and  _268
REMARK  108  A    between atoms: _268  and  _269
REMARK  109  A    between atoms: _268  and  _271
REMARK  110  A    between atoms: _271  and  _272
REMARK  111  A    between atoms: _272  and  _273
REMARK  112  A    between atoms: _273  and  _274
REMARK  113  A    between atoms: _274  and  _275
REMARK  114  A    between atoms: _279  and  _281
REMARK  115  A    between atoms: _281  and  _282
REMARK  116  A    between atoms: _281  and  _284
REMARK  117  A    between atoms: _284  and  _285
REMARK  118  A    between atoms: _288  and  _290
REMARK  119  A    between atoms: _290  and  _291
REMARK  120  A    between atoms: _290  and  _293
REMARK  121  A    between atoms: _293  and  _294
REMARK  122  A    between atoms: _294  and  _295
REMARK  123  A    between atoms: _300  and  _302
REMARK  124  A    between atoms: _302  and  _303
REMARK  125  A    between atoms: _302  and  _305
REMARK  126  A    between atoms: _305  and  _306
REMARK  127  A    between atoms: _311  and  _312
REMARK  128  A    between atoms: _314  and  _316
REMARK  129  A    between atoms: _316  and  _317
REMARK  130  A    between atoms: _316  and  _319
REMARK  131  A    between atoms: _319  and  _320
REMARK  132  A    between atoms: _323  and  _325
REMARK  133  A    between atoms: _325  and  _326
REMARK  134  A    between atoms: _325  and  _328
REMARK  135  A    between atoms: _330  and  _332
REMARK  136  A    between atoms: _332  and  _333
REMARK  137  A    between atoms: _336  and  _338
REMARK  138  A    between atoms: _338  and  _339
REMARK  139  A    between atoms: _338  and  _341
REMARK  140  A    between atoms: _341  and  _342
REMARK  141  A    between atoms: _345  and  _347
REMARK  142  A    between atoms: _347  and  _348
REMARK  143  A    between atoms: _351  and  _353
REMARK  144  A    between atoms: _353  and  _354
REMARK  145  A    between atoms: _353  and  _356
REMARK  146  A    between atoms: _356  and  _357
REMARK  147  A    between atoms: _357  and  _480
REMARK  148  A    between atoms: _358  and  _360
REMARK  149  A    between atoms: _360  and  _361
REMARK  150  A    between atoms: _360  and  _363
REMARK  151  A    between atoms: _363  and  _364
REMARK  152  A    between atoms: _364  and  _365
REMARK  153  A    between atoms: _365  and  _366
REMARK  154  A    between atoms: _366  and  _367
REMARK  155  A    between atoms: _371  and  _373
REMARK  156  A    between atoms: _373  and  _374
REMARK  157  A    between atoms: _376  and  _378
REMARK  158  A    between atoms: _378  and  _379
REMARK  159  A    between atoms: _378  and  _381
REMARK  160  A    between atoms: _381  and  _382
REMARK  161  A    between atoms: _385  and  _387
REMARK  162  A    between atoms: _387  and  _388
REMARK  163  A    between atoms: _387  and  _390
REMARK  164  A    between atoms: _390  and  _391
REMARK  165  A    between atoms: _393  and  _395
REMARK  166  A    between atoms: _395  and  _396
REMARK  167  A    between atoms: _398  and  _400
REMARK  168  A    between atoms: _400  and  _401
REMARK  169  A    between atoms: _403  and  _405
REMARK  170  A    between atoms: _405  and  _406
REMARK  171  A    between atoms: _405  and  _408
REMARK  172  A    between atoms: _408  and  _409
REMARK  173  A    between atoms: _412  and  _414
REMARK  174  A    between atoms: _414  and  _415
REMARK  175  A    between atoms: _414  and  _417
REMARK  176  A    between atoms: _417  and  _418
REMARK  177  A    between atoms: _421  and  _423
REMARK  178  A    between atoms: _423  and  _424
REMARK  179  A    between atoms: _423  and  _426
REMARK  180  A    between atoms: _426  and  _427
REMARK  181  A    between atoms: _430  and  _432
REMARK  182  A    between atoms: _432  and  _433
REMARK  183  A    between atoms: _432  and  _435
REMARK  184  A    between atoms: _435  and  _436
REMARK  185  A    between atoms: _438  and  _440
REMARK  186  A    between atoms: _440  and  _441
REMARK  187  A    between atoms: _440  and  _443
REMARK  188  A    between atoms: _443  and  _444
REMARK  189  A    between atoms: _454  and  _456
REMARK  190  A    between atoms: _456  and  _457
REMARK  191  A    between atoms: _459  and  _461
REMARK  192  A    between atoms: _461  and  _462
REMARK  193  A    between atoms: _461  and  _464
REMARK  194  A    between atoms: _464  and  _465
REMARK  195  A    between atoms: _465  and  _466
REMARK  196  A    between atoms: _469  and  _471
REMARK  197  A    between atoms: _471  and  _472
REMARK  198  A    between atoms: _474  and  _476
REMARK  199  A    between atoms: _476  and  _477
REMARK  200  A    between atoms: _476  and  _479
REMARK  201  A    between atoms: _479  and  _480
REMARK  202  A    between atoms: _481  and  _483
REMARK  203  A    between atoms: _483  and  _484
REMARK  204  A    between atoms: _487  and  _489
REMARK  205  A    between atoms: _489  and  _490
REMARK  206  A    between atoms: _489  and  _492
REMARK  207  A    between atoms: _492  and  _493
REMARK  208  A    between atoms: _493  and  _494
REMARK  209  A    between atoms: _499  and  _501
REMARK  210  A    between atoms: _501  and  _502
REMARK  211  A    between atoms: _501  and  _504
REMARK  212  A    between atoms: _504  and  _505
REMARK  213  A    between atoms: _505  and  _506
REMARK  214  A    between atoms: _506  and  _507
REMARK  215  A    between atoms: _517  and  _518
REMARK  216  A    between atoms: _523  and  _525
REMARK  217  A    between atoms: _525  and  _526
REMARK  218  A    between atoms: _528  and  _530
REMARK  219  A    between atoms: _530  and  _531
REMARK  220  A    between atoms: _530  and  _533
REMARK  221  A    between atoms: _536  and  _538
REMARK  222  A    between atoms: _538  and  _539
REMARK  223  A    between atoms: _538  and  _541
REMARK  224  A    between atoms: _541  and  _542
REMARK  225  A    between atoms: _547  and  _548
REMARK  226  A    between atoms: _550  and  _552
REMARK  227  A    between atoms: _552  and  _553
REMARK  228  A    between atoms: _552  and  _555
REMARK  229  A    between atoms: _555  and  _556
REMARK                            x       y       z     vdW  Elec       q    Type
REMARK                         _______ _______ _______ _____ _____    ______ ____
ROOT
ATOM      1  O   HOH     1      37.323 -22.629  24.980  0.00  0.00    +0.000 OA
ENDROOT
TORSDOF 0
REMARK  Name = ../refined-set-2016/4x6n/4x6n_pocket.pdb
REMARK  229 active torsions:
REMARK  status: ('A' for Active; 'I' for Inactive)
REMARK    1  A    between atoms: _1  and  _5
REMARK    2  A    between atoms: _5  and  _6
REMARK    3  A    between atoms: _5  and  _8
REMARK    4  A    between atoms: _8  and  _9
REMARK    5  A    between atoms: _12  and  _14
REMARK    6  A    between atoms: _14  and  _15
REMARK    7  A    between atoms: _14  and  _17
REMARK    8  A    between atoms: _20  and  _22
REMARK    9  A    between atoms: _22  and  _23
REMARK   10  A    between atoms: _22  and  _25
REMARK   11  A    between atoms: _25  and  _26
REMARK   12  A    between atoms: _29  and  _31
REMARK   13  A    between atoms: _31  and  _32
REMARK   14  A    between atoms: _31  and  _34
REMARK   15  A    between atoms: _34  and  _35
REMARK   16  A    between atoms: _38  and  _40
REMARK   17  A    between atoms: _40  and  _41
REMARK   18  A    between atoms: _40  and  _43
REMARK   19  A    between atoms: _43  and  _44
REMARK   20  A    between atoms: _47  and  _49
REMARK   21  A    between atoms: _49  and  _50
REMARK   22  A    between atoms: _49  and  _52
REMARK   23  A    between atoms: _52  and  _53
REMARK   24  A    between atoms: _53  and  _54
REMARK   25  A    between atoms: _59  and  _61
REMARK   26  A    between atoms: _61  and  _62
REMARK   27  A    between atoms: _61  and  _64
REMARK   28  A    between atoms: _64  and  _65
REMARK   29  A    between atoms: _65  and  _66
REMARK   30  A    between atoms: _66  and  _67
REMARK   31  A    between atoms: _76  and  _78
REMARK   32  A    between atoms: _78  and  _79
REMARK   33  A    between atoms: _78  and  _81
REMARK   34  A    between atoms: _81  and  _82
REMARK   35  A    between atoms: _87  and  _89
REMARK   36  A    between atoms: _89  and  _90
REMARK   37  A    between atoms: _89  and  _92
REMARK   38  A    between atoms: _92  and  _93
REMARK   39  A    between atoms: _96  and  _98
REMARK   40  A    between atoms: _98  and  _99
REMARK   41  A    between atoms: _98  and  _101
REMARK   42  A    between atoms: _101  and  _102
REMARK   43  A    between atoms: _102  and  _137
REMARK   44  A    between atoms: _103  and  _105
REMARK   45  A    between atoms: _105  and  _106
REMARK   46  A    between atoms: _108  and  _110
REMARK   47  A    between atoms: _110  and  _111
REMARK   48  A    between atoms: _114  and  _116
REMARK   49  A    between atoms: _116  and  _117
REMARK   50  A    between atoms: _120  and  _122
REMARK   51  A    between atoms: _122  and  _123
REMARK   52  A    between atoms: _122  and  _125
REMARK   53  A    between atoms: _125  and  _126
REMARK   54  A    between atoms: _131  and  _133
REMARK   55  A    between atoms: _133  and  _134
REMARK   56  A    between atoms: _133  and  _136
REMARK   57  A    between atoms: _136  and  _137
REMARK   58  A    between atoms: _138  and  _140
REMARK   59  A    between atoms: _140  and  _141
REMARK   60  A    between atoms: _140  and  _143
REMARK   61  A    between atoms: _143  and  _144
REMARK   62  A    between atoms: _150  and  _152
REMARK   63  A    between atoms: _152  and  _153
REMARK   64  A    between atoms: _152  and  _155
REMARK   65  A    between atoms: _155  and  _156
REMARK   66  A    between atoms: _161  and  _162
REMARK   67  A    between atoms: _164  and  _166
REMARK   68  A    between atoms: _166  and  _167
REMARK   69  A    between atoms: _169  and  _171
REMARK   70  A    between atoms: _171  and  _172
REMARK   71  A    between atoms: _171  and  _174
REMARK   72  A    between atoms: _177  and  _179
REMARK   73  A    between atoms: _179  and  _180
REMARK   74  A    between atoms: _183  and  _185
REMARK   75  A    between atoms: _185  and  _186
REMARK   76  A    between atoms: _185  and  _188
REMARK   77  A    between atoms: _188  and  _189
REMARK   78  A    between atoms: _192  and  _194
REMARK   79  A    between atoms: _194  and  _195
REMARK   80  A    between atoms: _194  and  _197
REMARK   81  A    between atoms: _200  and  _202
REMARK   82  A    between atoms: _202  and  _203
REMARK   83  A    between atoms: _202  and  _205
REMARK   84  A    between atoms: _205  and  _206
REMARK   85  A    between atoms: _216  and  _218
REMARK   86  A    between atoms: _218  and  _219
REMARK   87  A    between atoms: _221  and  _223
REMARK   88  A    between atoms: _223  and  _224
REMARK   89  A    between atoms: _223  and  _226
REMARK   90  A    between atoms: _226  and  _227
REMARK   91  A    between atoms: _232  and  _233
REMARK   92  A    between atoms: _235  and  _237
REMARK   93  A    between atoms: _237  and  _238
REMARK   94  A    between atoms: _237  and  _240
REMARK   95  A    between atoms: _240  and  _241
REMARK   96  A    between atoms: _241  and  _242
REMARK   97  A    between atoms: _242  and  _243
REMARK   98  A    between atoms: _243  and  _244
REMARK   99  A    between atoms: _248  and  _250
REMARK  100  A    between atoms: _250  and  _251
REMARK  101  A    between atoms: _250  and  _253
REMARK  102  A    between atoms: _253  and  _254
REMARK  103  A    between atoms: _257  and  _259
REMARK  104  A    between atoms: _259  and  _260
REMARK  105  A    between atoms: _259  and  _262
REMARK  106  A    between atoms: _262  and  _263
REMARK  107  A    between atoms: _266  and  _268
REMARK  108  A    between atoms: _268  and  _269
REMARK  109  A    between atoms: _268  and  _271
REMARK  110  A    between atoms: _271  and  _272
REMARK  111  A    between atoms: _272  and  _273
REMARK  112  A    between atoms: _273  and  _274
REMARK  113  A    between atoms: _274  and  _275
REMARK  114  A    between atoms: _279  and  _281
REMARK  115  A    between atoms: _281  and  _282
REMARK  116  A    between atoms: _281  and  _284
REMARK  117  A    between atoms: _284  and  _285
REMARK  118  A    between atoms: _288  and  _290
REMARK  119  A    between atoms: _290  and  _291
REMARK  120  A    between atoms: _290  and  _293
REMARK  121  A    between atoms: _293  and  _294
REMARK  122  A    between atoms: _294  and  _295
REMARK  123  A    between atoms: _300  and  _302
REMARK  124  A    between atoms: _302  and  _303
REMARK  125  A    between atoms: _302  and  _305
REMARK  126  A    between atoms: _305  and  _306
REMARK  127  A    between atoms: _311  and  _312
REMARK  128  A    between atoms: _314  and  _316
REMARK  129  A    between atoms: _316  and  _317
REMARK  130  A    between atoms: _316  and  _319
REMARK  131  A    between atoms: _319  and  _320
REMARK  132  A    between atoms: _323  and  _325
REMARK  133  A    between atoms: _325  and  _326
REMARK  134  A    between atoms: _325  and  _328
REMARK  135  A    between atoms: _330  and  _332
REMARK  136  A    between atoms: _332  and  _333
REMARK  137  A    between atoms: _336  and  _338
REMARK  138  A    between atoms: _338  and  _339
REMARK  139  A    between atoms: _338  and  _341
REMARK  140  A    between atoms: _341  and  _342
REMARK  141  A    between atoms: _345  and  _347
REMARK  142  A    between atoms: _347  and  _348
REMARK  143  A    between atoms: _351  and  _353
REMARK  144  A    between atoms: _353  and  _354
REMARK  145  A    between atoms: _353  and  _356
REMARK  146  A    between atoms: _356  and  _357
REMARK  147  A    between atoms: _357  and  _480
REMARK  148  A    between atoms: _358  and  _360
REMARK  149  A    between atoms: _360  and  _361
REMARK  150  A    between atoms: _360  and  _363
REMARK  151  A    between atoms: _363  and  _364
REMARK  152  A    between atoms: _364  and  _365
REMARK  153  A    between atoms: _365  and  _366
REMARK  154  A    between atoms: _366  and  _367
REMARK  155  A    between atoms: _371  and  _373
REMARK  156  A    between atoms: _373  and  _374
REMARK  157  A    between atoms: _376  and  _378
REMARK  158  A    between atoms: _378  and  _379
REMARK  159  A    between atoms: _378  and  _381
REMARK  160  A    between atoms: _381  and  _382
REMARK  161  A    between atoms: _385  and  _387
REMARK  162  A    between atoms: _387  and  _388
REMARK  163  A    between atoms: _387  and  _390
REMARK  164  A    between atoms: _390  and  _391
REMARK  165  A    between atoms: _393  and  _395
REMARK  166  A    between atoms: _395  and  _396
REMARK  167  A    between atoms: _398  and  _400
REMARK  168  A    between atoms: _400  and  _401
REMARK  169  A    between atoms: _403  and  _405
REMARK  170  A    between atoms: _405  and  _406
REMARK  171  A    between atoms: _405  and  _408
REMARK  172  A    between atoms: _408  and  _409
REMARK  173  A    between atoms: _412  and  _414
REMARK  174  A    between atoms: _414  and  _415
REMARK  175  A    between atoms: _414  and  _417
REMARK  176  A    between atoms: _417  and  _418
REMARK  177  A    between atoms: _421  and  _423
REMARK  178  A    between atoms: _423  and  _424
REMARK  179  A    between atoms: _423  and  _426
REMARK  180  A    between atoms: _426  and  _427
REMARK  181  A    between atoms: _430  and  _432
REMARK  182  A    between atoms: _432  and  _433
REMARK  183  A    between atoms: _432  and  _435
REMARK  184  A    between atoms: _435  and  _436
REMARK  185  A    between atoms: _438  and  _440
REMARK  186  A    between atoms: _440  and  _441
REMARK  187  A    between atoms: _440  and  _443
REMARK  188  A    between atoms: _443  and  _444
REMARK  189  A    between atoms: _454  and  _456
REMARK  190  A    between atoms: _456  and  _457
REMARK  191  A    between atoms: _459  and  _461
REMARK  192  A    between atoms: _461  and  _462
REMARK  193  A    between atoms: _461  and  _464
REMARK  194  A    between atoms: _464  and  _465
REMARK  195  A    between atoms: _465  and  _466
REMARK  196  A    between atoms: _469  and  _471
REMARK  197  A    between atoms: _471  and  _472
REMARK  198  A    between atoms: _474  and  _476
REMARK  199  A    between atoms: _476  and  _477
REMARK  200  A    between atoms: _476  and  _479
REMARK  201  A    between atoms: _479  and  _480
REMARK  202  A    between atoms: _481  and  _483
REMARK  203  A    between atoms: _483  and  _484
REMARK  204  A    between atoms: _487  and  _489
REMARK  205  A    between atoms: _489  and  _490
REMARK  206  A    between atoms: _489  and  _492
REMARK  207  A    between atoms: _492  and  _493
REMARK  208  A    between atoms: _493  and  _494
REMARK  209  A    between atoms: _499  and  _501
REMARK  210  A    between atoms: _501  and  _502
REMARK  211  A    between atoms: _501  and  _504
REMARK  212  A    between atoms: _504  and  _505
REMARK  213  A    between atoms: _505  and  _506
REMARK  214  A    between atoms: _506  and  _507
REMARK  215  A    between atoms: _517  and  _518
REMARK  216  A    between atoms: _523  and  _525
REMARK  217  A    between atoms: _525  and  _526
REMARK  218  A    between atoms: _528  and  _530
REMARK  219  A    between atoms: _530  and  _531
REMARK  220  A    between atoms: _530  and  _533
REMARK  221  A    between atoms: _536  and  _538
REMARK  222  A    between atoms: _538  and  _539
REMARK  223  A    between atoms: _538  and  _541
REMARK  224  A    between atoms: _541  and  _542
REMARK  225  A    between atoms: _547  and  _548
REMARK  226  A    between atoms: _550  and  _552
REMARK  227  A    between atoms: _552  and  _553
REMARK  228  A    between atoms: _552  and  _555
REMARK  229  A    between atoms: _555  and  _556
REMARK                            x       y       z     vdW  Elec       q    Type
REMARK                         _______ _______ _______ _____ _____    ______ ____
ROOT
ATOM      1  O   HOH     1      43.951 -30.418  30.609  0.00  0.00    +0.000 OA
ENDROOT
TORSDOF 0
REMARK  Name = ../refined-set-2016/4x6n/4x6n_pocket.pdb
REMARK  229 active torsions:
REMARK  status: ('A' for Active; 'I' for Inactive)
REMARK    1  A    between atoms: _1  and  _5
REMARK    2  A    between atoms: _5  and  _6
REMARK    3  A    between atoms: _5  and  _8
REMARK    4  A    between atoms: _8  and  _9
REMARK    5  A    between atoms: _12  and  _14
REMARK    6  A    between atoms: _14  and  _15
REMARK    7  A    between atoms: _14  and  _17
REMARK    8  A    between atoms: _20  and  _22
REMARK    9  A    between atoms: _22  and  _23
REMARK   10  A    between atoms: _22  and  _25
REMARK   11  A    between atoms: _25  and  _26
REMARK   12  A    between atoms: _29  and  _31
REMARK   13  A    between atoms: _31  and  _32
REMARK   14  A    between atoms: _31  and  _34
REMARK   15  A    between atoms: _34  and  _35
REMARK   16  A    between atoms: _38  and  _40
REMARK   17  A    between atoms: _40  and  _41
REMARK   18  A    between atoms: _40  and  _43
REMARK   19  A    between atoms: _43  and  _44
REMARK   20  A    between atoms: _47  and  _49
REMARK   21  A    between atoms: _49  and  _50
REMARK   22  A    between atoms: _49  and  _52
REMARK   23  A    between atoms: _52  and  _53
REMARK   24  A    between atoms: _53  and  _54
REMARK   25  A    between atoms: _59  and  _61
REMARK   26  A    between atoms: _61  and  _62
REMARK   27  A    between atoms: _61  and  _64
REMARK   28  A    between atoms: _64  and  _65
REMARK   29  A    between atoms: _65  and  _66
REMARK   30  A    between atoms: _66  and  _67
REMARK   31  A    between atoms: _76  and  _78
REMARK   32  A    between atoms: _78  and  _79
REMARK   33  A    between atoms: _78  and  _81
REMARK   34  A    between atoms: _81  and  _82
REMARK   35  A    between atoms: _87  and  _89
REMARK   36  A    between atoms: _89  and  _90
REMARK   37  A    between atoms: _89  and  _92
REMARK   38  A    between atoms: _92  and  _93
REMARK   39  A    between atoms: _96  and  _98
REMARK   40  A    between atoms: _98  and  _99
REMARK   41  A    between atoms: _98  and  _101
REMARK   42  A    between atoms: _101  and  _102
REMARK   43  A    between atoms: _102  and  _137
REMARK   44  A    between atoms: _103  and  _105
REMARK   45  A    between atoms: _105  and  _106
REMARK   46  A    between atoms: _108  and  _110
REMARK   47  A    between atoms: _110  and  _111
REMARK   48  A    between atoms: _114  and  _116
REMARK   49  A    between atoms: _116  and  _117
REMARK   50  A    between atoms: _120  and  _122
REMARK   51  A    between atoms: _122  and  _123
REMARK   52  A    between atoms: _122  and  _125
REMARK   53  A    between atoms: _125  and  _126
REMARK   54  A    between atoms: _131  and  _133
REMARK   55  A    between atoms: _133  and  _134
REMARK   56  A    between atoms: _133  and  _136
REMARK   57  A    between atoms: _136  and  _137
REMARK   58  A    between atoms: _138  and  _140
REMARK   59  A    between atoms: _140  and  _141
REMARK   60  A    between atoms: _140  and  _143
REMARK   61  A    between atoms: _143  and  _144
REMARK   62  A    between atoms: _150  and  _152
REMARK   63  A    between atoms: _152  and  _153
REMARK   64  A    between atoms: _152  and  _155
REMARK   65  A    between atoms: _155  and  _156
REMARK   66  A    between atoms: _161  and  _162
REMARK   67  A    between atoms: _164  and  _166
REMARK   68  A    between atoms: _166  and  _167
REMARK   69  A    between atoms: _169  and  _171
REMARK   70  A    between atoms: _171  and  _172
REMARK   71  A    between atoms: _171  and  _174
REMARK   72  A    between atoms: _177  and  _179
REMARK   73  A    between atoms: _179  and  _180
REMARK   74  A    between atoms: _183  and  _185
REMARK   75  A    between atoms: _185  and  _186
REMARK   76  A    between atoms: _185  and  _188
REMARK   77  A    between atoms: _188  and  _189
REMARK   78  A    between atoms: _192  and  _194
REMARK   79  A    between atoms: _194  and  _195
REMARK   80  A    between atoms: _194  and  _197
REMARK   81  A    between atoms: _200  and  _202
REMARK   82  A    between atoms: _202  and  _203
REMARK   83  A    between atoms: _202  and  _205
REMARK   84  A    between atoms: _205  and  _206
REMARK   85  A    between atoms: _216  and  _218
REMARK   86  A    between atoms: _218  and  _219
REMARK   87  A    between atoms: _221  and  _223
REMARK   88  A    between atoms: _223  and  _224
REMARK   89  A    between atoms: _223  and  _226
REMARK   90  A    between atoms: _226  and  _227
REMARK   91  A    between atoms: _232  and  _233
REMARK   92  A    between atoms: _235  and  _237
REMARK   93  A    between atoms: _237  and  _238
REMARK   94  A    between atoms: _237  and  _240
REMARK   95  A    between atoms: _240  and  _241
REMARK   96  A    between atoms: _241  and  _242
REMARK   97  A    between atoms: _242  and  _243
REMARK   98  A    between atoms: _243  and  _244
REMARK   99  A    between atoms: _248  and  _250
REMARK  100  A    between atoms: _250  and  _251
REMARK  101  A    between atoms: _250  and  _253
REMARK  102  A    between atoms: _253  and  _254
REMARK  103  A    between atoms: _257  and  _259
REMARK  104  A    between atoms: _259  and  _260
REMARK  105  A    between atoms: _259  and  _262
REMARK  106  A    between atoms: _262  and  _263
REMARK  107  A    between atoms: _266  and  _268
REMARK  108  A    between atoms: _268  and  _269
REMARK  109  A    between atoms: _268  and  _271
REMARK  110  A    between atoms: _271  and  _272
REMARK  111  A    between atoms: _272  and  _273
REMARK  112  A    between atoms: _273  and  _274
REMARK  113  A    between atoms: _274  and  _275
REMARK  114  A    between atoms: _279  and  _281
REMARK  115  A    between atoms: _281  and  _282
REMARK  116  A    between atoms: _281  and  _284
REMARK  117  A    between atoms: _284  and  _285
REMARK  118  A    between atoms: _288  and  _290
REMARK  119  A    between atoms: _290  and  _291
REMARK  120  A    between atoms: _290  and  _293
REMARK  121  A    between atoms: _293  and  _294
REMARK  122  A    between atoms: _294  and  _295
REMARK  123  A    between atoms: _300  and  _302
REMARK  124  A    between atoms: _302  and  _303
REMARK  125  A    between atoms: _302  and  _305
REMARK  126  A    between atoms: _305  and  _306
REMARK  127  A    between atoms: _311  and  _312
REMARK  128  A    between atoms: _314  and  _316
REMARK  129  A    between atoms: _316  and  _317
REMARK  130  A    between atoms: _316  and  _319
REMARK  131  A    between atoms: _319  and  _320
REMARK  132  A    between atoms: _323  and  _325
REMARK  133  A    between atoms: _325  and  _326
REMARK  134  A    between atoms: _325  and  _328
REMARK  135  A    between atoms: _330  and  _332
REMARK  136  A    between atoms: _332  and  _333
REMARK  137  A    between atoms: _336  and  _338
REMARK  138  A    between atoms: _338  and  _339
REMARK  139  A    between atoms: _338  and  _341
REMARK  140  A    between atoms: _341  and  _342
REMARK  141  A    between atoms: _345  and  _347
REMARK  142  A    between atoms: _347  and  _348
REMARK  143  A    between atoms: _351  and  _353
REMARK  144  A    between atoms: _353  and  _354
REMARK  145  A    between atoms: _353  and  _356
REMARK  146  A    between atoms: _356  and  _357
REMARK  147  A    between atoms: _357  and  _480
REMARK  148  A    between atoms: _358  and  _360
REMARK  149  A    between atoms: _360  and  _361
REMARK  150  A    between atoms: _360  and  _363
REMARK  151  A    between atoms: _363  and  _364
REMARK  152  A    between atoms: _364  and  _365
REMARK  153  A    between atoms: _365  and  _366
REMARK  154  A    between atoms: _366  and  _367
REMARK  155  A    between atoms: _371  and  _373
REMARK  156  A    between atoms: _373  and  _374
REMARK  157  A    between atoms: _376  and  _378
REMARK  158  A    between atoms: _378  and  _379
REMARK  159  A    between atoms: _378  and  _381
REMARK  160  A    between atoms: _381  and  _382
REMARK  161  A    between atoms: _385  and  _387
REMARK  162  A    between atoms: _387  and  _388
REMARK  163  A    between atoms: _387  and  _390
REMARK  164  A    between atoms: _390  and  _391
REMARK  165  A    between atoms: _393  and  _395
REMARK  166  A    between atoms: _395  and  _396
REMARK  167  A    between atoms: _398  and  _400
REMARK  168  A    between atoms: _400  and  _401
REMARK  169  A    between atoms: _403  and  _405
REMARK  170  A    between atoms: _405  and  _406
REMARK  171  A    between atoms: _405  and  _408
REMARK  172  A    between atoms: _408  and  _409
REMARK  173  A    between atoms: _412  and  _414
REMARK  174  A    between atoms: _414  and  _415
REMARK  175  A    between atoms: _414  and  _417
REMARK  176  A    between atoms: _417  and  _418
REMARK  177  A    between atoms: _421  and  _423
REMARK  178  A    between atoms: _423  and  _424
REMARK  179  A    between atoms: _423  and  _426
REMARK  180  A    between atoms: _426  and  _427
REMARK  181  A    between atoms: _430  and  _432
REMARK  182  A    between atoms: _432  and  _433
REMARK  183  A    between atoms: _432  and  _435
REMARK  184  A    between atoms: _435  and  _436
REMARK  185  A    between atoms: _438  and  _440
REMARK  186  A    between atoms: _440  and  _441
REMARK  187  A    between atoms: _440  and  _443
REMARK  188  A    between atoms: _443  and  _444
REMARK  189  A    between atoms: _454  and  _456
REMARK  190  A    between atoms: _456  and  _457
REMARK  191  A    between atoms: _459  and  _461
REMARK  192  A    between atoms: _461  and  _462
REMARK  193  A    between atoms: _461  and  _464
REMARK  194  A    between atoms: _464  and  _465
REMARK  195  A    between atoms: _465  and  _466
REMARK  196  A    between atoms: _469  and  _471
REMARK  197  A    between atoms: _471  and  _472
REMARK  198  A    between atoms: _474  and  _476
REMARK  199  A    between atoms: _476  and  _477
REMARK  200  A    between atoms: _476  and  _479
REMARK  201  A    between atoms: _479  and  _480
REMARK  202  A    between atoms: _481  and  _483
REMARK  203  A    between atoms: _483  and  _484
REMARK  204  A    between atoms: _487  and  _489
REMARK  205  A    between atoms: _489  and  _490
REMARK  206  A    between atoms: _489  and  _492
REMARK  207  A    between atoms: _492  and  _493
REMARK  208  A    between atoms: _493  and  _494
REMARK  209  A    between atoms: _499  and  _501
REMARK  210  A    between atoms: _501  and  _502
REMARK  211  A    between atoms: _501  and  _504
REMARK  212  A    between atoms: _504  and  _505
REMARK  213  A    between atoms: _505  and  _506
REMARK  214  A    between atoms: _506  and  _507
REMARK  215  A    between atoms: _517  and  _518
REMARK  216  A    between atoms: _523  and  _525
REMARK  217  A    between atoms: _525  and  _526
REMARK  218  A    between atoms: _528  and  _530
REMARK  219  A    between atoms: _530  and  _531
REMARK  220  A    between atoms: _530  and  _533
REMARK  221  A    between atoms: _536  and  _538
REMARK  222  A    between atoms: _538  and  _539
REMARK  223  A    between atoms: _538  and  _541
REMARK  224  A    between atoms: _541  and  _542
REMARK  225  A    between atoms: _547  and  _548
REMARK  226  A    between atoms: _550  and  _552
REMARK  227  A    between atoms: _552  and  _553
REMARK  228  A    between atoms: _552  and  _555
REMARK  229  A    between atoms: _555  and  _556
REMARK                            x       y       z     vdW  Elec       q    Type
REMARK                         _______ _______ _______ _____ _____    ______ ____
ROOT
ATOM      1  O   HOH     1      44.161  -8.753  24.459  0.00  0.00    +0.000 OA
ENDROOT
TORSDOF 0
