REMARK  Name = ../refined-set-2016/3t3u/3t3u_pocket.pdb
REMARK  234 active torsions:
REMARK  status: ('A' for Active; 'I' for Inactive)
REMARK    1  A    between atoms: _1  and  _3
REMARK    2  A    between atoms: _3  and  _4
REMARK    3  A    between atoms: _3  and  _6
REMARK    4  A    between atoms: _6  and  _7
REMARK    5  A    between atoms: _7  and  _8
REMARK    6  A    between atoms: _8  and  _9
REMARK    7  A    between atoms: _18  and  _20
REMARK    8  A    between atoms: _20  and  _21
REMARK    9  A    between atoms: _20  and  _23
REMARK   10  A    between atoms: _26  and  _28
REMARK   11  A    between atoms: _28  and  _29
REMARK   12  A    between atoms: _28  and  _31
REMARK   13  A    between atoms: _31  and  _32
REMARK   14  A    between atoms: _35  and  _37
REMARK   15  A    between atoms: _37  and  _38
REMARK   16  A    between atoms: _40  and  _42
REMARK   17  A    between atoms: _42  and  _43
REMARK   18  A    between atoms: _42  and  _45
REMARK   19  A    between atoms: _45  and  _46
REMARK   20  A    between atoms: _46  and  _47
REMARK   21  A    between atoms: _47  and  _48
REMARK   22  A    between atoms: _48  and  _49
REMARK   23  A    between atoms: _53  and  _55
REMARK   24  A    between atoms: _55  and  _56
REMARK   25  A    between atoms: _58  and  _60
REMARK   26  A    between atoms: _60  and  _61
REMARK   27  A    between atoms: _60  and  _63
REMARK   28  A    between atoms: _63  and  _64
REMARK   29  A    between atoms: _66  and  _68
REMARK   30  A    between atoms: _68  and  _69
REMARK   31  A    between atoms: _68  and  _71
REMARK   32  A    between atoms: _71  and  _72
REMARK   33  A    between atoms: _78  and  _80
REMARK   34  A    between atoms: _80  and  _81
REMARK   35  A    between atoms: _83  and  _85
REMARK   36  A    between atoms: _85  and  _86
REMARK   37  A    between atoms: _85  and  _88
REMARK   38  A    between atoms: _88  and  _89
REMARK   39  A    between atoms: _89  and  _90
REMARK   40  A    between atoms: _93  and  _95
REMARK   41  A    between atoms: _95  and  _96
REMARK   42  A    between atoms: _95  and  _98
REMARK   43  A    between atoms: _101  and  _103
REMARK   44  A    between atoms: _103  and  _104
REMARK   45  A    between atoms: _103  and  _106
REMARK   46  A    between atoms: _106  and  _107
REMARK   47  A    between atoms: _110  and  _112
REMARK   48  A    between atoms: _112  and  _113
REMARK   49  A    between atoms: _112  and  _115
REMARK   50  A    between atoms: _115  and  _116
REMARK   51  A    between atoms: _119  and  _121
REMARK   52  A    between atoms: _121  and  _122
REMARK   53  A    between atoms: _121  and  _124
REMARK   54  A    between atoms: _126  and  _128
REMARK   55  A    between atoms: _128  and  _129
REMARK   56  A    between atoms: _132  and  _134
REMARK   57  A    between atoms: _134  and  _135
REMARK   58  A    between atoms: _134  and  _137
REMARK   59  A    between atoms: _140  and  _142
REMARK   60  A    between atoms: _142  and  _143
REMARK   61  A    between atoms: _142  and  _145
REMARK   62  A    between atoms: _145  and  _146
REMARK   63  A    between atoms: _146  and  _147
REMARK   64  A    between atoms: _147  and  _148
REMARK   65  A    between atoms: _148  and  _149
REMARK   66  A    between atoms: _153  and  _155
REMARK   67  A    between atoms: _155  and  _156
REMARK   68  A    between atoms: _155  and  _158
REMARK   69  A    between atoms: _161  and  _163
REMARK   70  A    between atoms: _163  and  _164
REMARK   71  A    between atoms: _163  and  _166
REMARK   72  A    between atoms: _166  and  _167
REMARK   73  A    between atoms: _170  and  _172
REMARK   74  A    between atoms: _172  and  _173
REMARK   75  A    between atoms: _172  and  _175
REMARK   76  A    between atoms: _178  and  _180
REMARK   77  A    between atoms: _180  and  _181
REMARK   78  A    between atoms: _180  and  _183
REMARK   79  A    between atoms: _183  and  _184
REMARK   80  A    between atoms: _187  and  _189
REMARK   81  A    between atoms: _189  and  _190
REMARK   82  A    between atoms: _189  and  _192
REMARK   83  A    between atoms: _192  and  _193
REMARK   84  A    between atoms: _193  and  _194
REMARK   85  A    between atoms: _196  and  _198
REMARK   86  A    between atoms: _198  and  _199
REMARK   87  A    between atoms: _198  and  _201
REMARK   88  A    between atoms: _201  and  _202
REMARK   89  A    between atoms: _202  and  _203
REMARK   90  A    between atoms: _203  and  _204
REMARK   91  A    between atoms: _204  and  _205
REMARK   92  A    between atoms: _209  and  _211
REMARK   93  A    between atoms: _211  and  _212
REMARK   94  A    between atoms: _211  and  _214
REMARK   95  A    between atoms: _214  and  _215
REMARK   96  A    between atoms: _218  and  _220
REMARK   97  A    between atoms: _220  and  _221
REMARK   98  A    between atoms: _220  and  _223
REMARK   99  A    between atoms: _223  and  _224
REMARK  100  A    between atoms: _229  and  _230
REMARK  101  A    between atoms: _232  and  _234
REMARK  102  A    between atoms: _234  and  _235
REMARK  103  A    between atoms: _234  and  _237
REMARK  104  A    between atoms: _237  and  _238
REMARK  105  A    between atoms: _238  and  _239
REMARK  106  A    between atoms: _242  and  _244
REMARK  107  A    between atoms: _244  and  _245
REMARK  108  A    between atoms: _244  and  _247
REMARK  109  A    between atoms: _247  and  _248
REMARK  110  A    between atoms: _254  and  _256
REMARK  111  A    between atoms: _256  and  _257
REMARK  112  A    between atoms: _256  and  _259
REMARK  113  A    between atoms: _259  and  _260
REMARK  114  A    between atoms: _265  and  _266
REMARK  115  A    between atoms: _268  and  _270
REMARK  116  A    between atoms: _270  and  _271
REMARK  117  A    between atoms: _270  and  _273
REMARK  118  A    between atoms: _273  and  _274
REMARK  119  A    between atoms: _277  and  _279
REMARK  120  A    between atoms: _279  and  _280
REMARK  121  A    between atoms: _279  and  _282
REMARK  122  A    between atoms: _285  and  _287
REMARK  123  A    between atoms: _287  and  _288
REMARK  124  A    between atoms: _290  and  _292
REMARK  125  A    between atoms: _292  and  _293
REMARK  126  A    between atoms: _292  and  _295
REMARK  127  A    between atoms: _295  and  _296
REMARK  128  A    between atoms: _296  and  _297
REMARK  129  A    between atoms: _300  and  _302
REMARK  130  A    between atoms: _302  and  _303
REMARK  131  A    between atoms: _302  and  _305
REMARK  132  A    between atoms: _308  and  _310
REMARK  133  A    between atoms: _310  and  _311
REMARK  134  A    between atoms: _310  and  _313
REMARK  135  A    between atoms: _313  and  _314
REMARK  136  A    between atoms: _319  and  _320
REMARK  137  A    between atoms: _322  and  _324
REMARK  138  A    between atoms: _324  and  _325
REMARK  139  A    between atoms: _324  and  _327
REMARK  140  A    between atoms: _327  and  _328
REMARK  141  A    between atoms: _331  and  _333
REMARK  142  A    between atoms: _333  and  _334
REMARK  143  A    between atoms: _336  and  _338
REMARK  144  A    between atoms: _338  and  _339
REMARK  145  A    between atoms: _341  and  _343
REMARK  146  A    between atoms: _343  and  _344
REMARK  147  A    between atoms: _343  and  _346
REMARK  148  A    between atoms: _346  and  _347
REMARK  149  A    between atoms: _347  and  _348
REMARK  150  A    between atoms: _351  and  _353
REMARK  151  A    between atoms: _353  and  _354
REMARK  152  A    between atoms: _353  and  _356
REMARK  153  A    between atoms: _356  and  _357
REMARK  154  A    between atoms: _360  and  _362
REMARK  155  A    between atoms: _362  and  _363
REMARK  156  A    between atoms: _362  and  _365
REMARK  157  A    between atoms: _365  and  _366
REMARK  158  A    between atoms: _369  and  _371
REMARK  159  A    between atoms: _371  and  _372
REMARK  160  A    between atoms: _371  and  _374
REMARK  161  A    between atoms: _374  and  _375
REMARK  162  A    between atoms: _380  and  _382
REMARK  163  A    between atoms: _382  and  _383
REMARK  164  A    between atoms: _382  and  _385
REMARK  165  A    between atoms: _385  and  _386
REMARK  166  A    between atoms: _386  and  _387
REMARK  167  A    between atoms: _387  and  _388
REMARK  168  A    between atoms: _388  and  _389
REMARK  169  A    between atoms: _394  and  _395
REMARK  170  A    between atoms: _400  and  _402
REMARK  171  A    between atoms: _402  and  _403
REMARK  172  A    between atoms: _402  and  _405
REMARK  173  A    between atoms: _405  and  _406
REMARK  174  A    between atoms: _406  and  _407
REMARK  175  A    between atoms: _410  and  _412
REMARK  176  A    between atoms: _412  and  _413
REMARK  177  A    between atoms: _412  and  _415
REMARK  178  A    between atoms: _415  and  _416
REMARK  179  A    between atoms: _421  and  _423
REMARK  180  A    between atoms: _423  and  _424
REMARK  181  A    between atoms: _423  and  _426
REMARK  182  A    between atoms: _426  and  _427
REMARK  183  A    between atoms: _430  and  _432
REMARK  184  A    between atoms: _432  and  _433
REMARK  185  A    between atoms: _432  and  _435
REMARK  186  A    between atoms: _435  and  _436
REMARK  187  A    between atoms: _439  and  _441
REMARK  188  A    between atoms: _441  and  _442
REMARK  189  A    between atoms: _441  and  _444
REMARK  190  A    between atoms: _444  and  _445
REMARK  191  A    between atoms: _448  and  _450
REMARK  192  A    between atoms: _450  and  _451
REMARK  193  A    between atoms: _450  and  _453
REMARK  194  A    between atoms: _453  and  _454
REMARK  195  A    between atoms: _454  and  _455
REMARK  196  A    between atoms: _455  and  _456
REMARK  197  A    between atoms: _465  and  _467
REMARK  198  A    between atoms: _467  and  _468
REMARK  199  A    between atoms: _467  and  _470
REMARK  200  A    between atoms: _470  and  _471
REMARK  201  A    between atoms: _474  and  _476
REMARK  202  A    between atoms: _476  and  _477
REMARK  203  A    between atoms: _476  and  _479
REMARK  204  A    between atoms: _479  and  _480
REMARK  205  A    between atoms: _483  and  _485
REMARK  206  A    between atoms: _485  and  _486
REMARK  207  A    between atoms: _485  and  _488
REMARK  208  A    between atoms: _488  and  _489
REMARK  209  A    between atoms: _492  and  _494
REMARK  210  A    between atoms: _494  and  _495
REMARK  211  A    between atoms: _494  and  _497
REMARK  212  A    between atoms: _497  and  _498
REMARK  213  A    between atoms: _504  and  _506
REMARK  214  A    between atoms: _506  and  _507
REMARK  215  A    between atoms: _509  and  _511
REMARK  216  A    between atoms: _511  and  _512
REMARK  217  A    between atoms: _511  and  _514
REMARK  218  A    between atoms: _514  and  _515
REMARK  219  A    between atoms: _518  and  _520
REMARK  220  A    between atoms: _520  and  _521
REMARK  221  A    between atoms: _520  and  _523
REMARK  222  A    between atoms: _523  and  _524
REMARK  223  A    between atoms: _530  and  _532
REMARK  224  A    between atoms: _532  and  _533
REMARK  225  A    between atoms: _532  and  _535
REMARK  226  A    between atoms: _535  and  _536
REMARK  227  A    between atoms: _536  and  _537
REMARK  228  A    between atoms: _537  and  _538
REMARK  229  A    between atoms: _538  and  _539
REMARK  230  A    between atoms: _543  and  _545
REMARK  231  A    between atoms: _545  and  _546
REMARK  232  A    between atoms: _545  and  _548
REMARK  233  A    between atoms: _548  and  _549
REMARK  234  A    between atoms: _549  and  _550
REMARK                            x       y       z     vdW  Elec       q    Type
REMARK                         _______ _______ _______ _____ _____    ______ ____
ROOT
ATOM      1  C   GLY A   6      18.627  23.304  63.734  0.00  0.00    +0.243 C 
ATOM      2  O   GLY A   6      18.744  24.406  64.278  0.00  0.00    -0.273 OA
ATOM      3  N   SER A   7      17.507  22.860  63.187  0.00  0.00    -0.295 N 
ATOM      4  H   SER A   7      17.509  21.930  62.721  0.00  0.00    +0.150 HD
ENDROOT
BRANCH   3   5
ATOM      5  CA  SER A   7      16.276  23.627  63.215  0.00  0.00    +0.178 C 
BRANCH   5   6
ATOM      6  C   SER A   7      15.549  23.521  64.549  0.00  0.00    +0.243 C 
ATOM      7  O   SER A   7      15.464  22.448  65.158  0.00  0.00    -0.273 OA
ATOM      8  N   PHE A   8      15.050  24.670  64.995  0.00  0.00    -0.297 N 
ATOM      9  H   PHE A   8      15.243  25.534  64.449  0.00  0.00    +0.150 HD
BRANCH   8  10
ATOM     10  CA  PHE A   8      14.240  24.789  66.218  0.00  0.00    +0.153 C 
BRANCH  10  11
ATOM     11  C   PHE A   8      14.995  24.577  67.526  0.00  0.00    +0.241 C 
ATOM     12  O   PHE A   8      14.432  24.779  68.603  0.00  0.00    -0.273 OA
ATOM     13  N   GLY A   9      16.259  24.184  67.441  0.00  0.00    -0.295 N 
ATOM     14  H   GLY A   9      16.679  24.008  66.506  0.00  0.00    +0.150 HD
BRANCH  13  15
ATOM     15  CA  GLY A   9      17.066  23.996  68.637  0.00  0.00    +0.176 C 
BRANCH  15  16
ATOM     16  C   GLY A   9      18.326  23.189  68.431  0.00  0.00    +0.243 C 
ATOM     17  N   GLU A  10      19.079  23.015  69.511  0.00  0.00    -0.297 N 
ATOM     18  H   GLU A  10      18.782  23.415  70.424  0.00  0.00    +0.150 HD
ATOM     19  O   GLY A   9      18.626  22.739  67.321  0.00  0.00    -0.273 OA
BRANCH  17  20
ATOM     20  CA  GLU A  10      20.319  22.264  69.413  0.00  0.00    +0.149 C 
BRANCH  20  21
ATOM     21  C   GLU A  10      20.062  20.766  69.494  0.00  0.00    +0.241 C 
ATOM     22  O   GLU A  10      19.111  20.304  70.135  0.00  0.00    -0.273 OA
ATOM     23  N   VAL A  11      20.896  20.029  68.775  0.00  0.00    -0.297 N 
ATOM     24  H   VAL A  11      21.596  20.505  68.171  0.00  0.00    +0.150 HD
BRANCH  23  25
ATOM     25  CA  VAL A  11      20.864  18.580  68.803  0.00  0.00    +0.149 C 
BRANCH  25  26
ATOM     26  C   VAL A  11      22.083  18.079  69.578  0.00  0.00    +0.241 C 
ATOM     27  N   ILE A  12      21.804  17.287  70.603  0.00  0.00    -0.297 N 
ATOM     28  H   ILE A  12      20.810  17.048  70.794  0.00  0.00    +0.150 HD
ATOM     29  O   VAL A  11      23.232  18.415  69.270  0.00  0.00    -0.273 OA
BRANCH  27  30
ATOM     30  CA  ILE A  12      22.837  16.737  71.474  0.00  0.00    +0.149 C 
BRANCH  30  31
ATOM     31  C   ILE A  12      22.872  15.225  71.373  0.00  0.00    +0.241 C 
ATOM     32  O   ILE A  12      21.833  14.546  71.508  0.00  0.00    -0.273 OA
ATOM     33  N   LEU A  13      24.066  14.699  71.107  0.00  0.00    -0.298 N 
ATOM     34  H   LEU A  13      24.849  15.321  70.821  0.00  0.00    +0.150 HD
BRANCH  33  35
ATOM     35  CA  LEU A  13      24.290  13.259  71.212  0.00  0.00    +0.137 C 
BRANCH  35  36
ATOM     36  C   LEU A  13      24.170  12.890  72.687  0.00  0.00    +0.227 C 
ATOM     37  O   LEU A  13      24.868  13.458  73.552  0.00  0.00    -0.286 OA
ENDBRANCH  35  36
BRANCH  35  38
ATOM     38  CB  LEU A  13      25.634  12.812  70.651  0.00  0.00    +0.028 C 
BRANCH  38  39
ATOM     39  CG  LEU A  13      25.869  11.296  70.651  0.00  0.00    +0.002 C 
ATOM     40  CD2 LEU A  13      27.352  10.963  70.692  0.00  0.00    +0.000 C 
ATOM     41  CD1 LEU A  13      25.214  10.653  69.433  0.00  0.00    +0.000 C 
ENDBRANCH  38  39
ENDBRANCH  35  38
ENDBRANCH  33  35
ENDBRANCH  30  31
BRANCH  30  42
ATOM     42  CB  ILE A  12      22.611  17.144  72.948  0.00  0.00    +0.027 C 
ATOM     43  CG2 ILE A  12      23.520  16.350  73.877  0.00  0.00    +0.002 C 
BRANCH  42  44
ATOM     44  CG1 ILE A  12      22.881  18.639  73.123  0.00  0.00    +0.002 C 
ATOM     45  CD1 ILE A  12      22.006  19.284  74.181  0.00  0.00    +0.000 C 
ENDBRANCH  42  44
ENDBRANCH  30  42
ENDBRANCH  27  30
ENDBRANCH  25  26
BRANCH  25  46
ATOM     46  CB  VAL A  11      20.814  17.958  67.388  0.00  0.00    +0.027 C 
ATOM     47  CG2 VAL A  11      21.007  16.450  67.471  0.00  0.00    +0.002 C 
ATOM     48  CG1 VAL A  11      19.475  18.280  66.699  0.00  0.00    +0.002 C 
ENDBRANCH  25  46
ENDBRANCH  23  25
ENDBRANCH  20  21
BRANCH  20  49
ATOM     49  CB  GLU A  10      21.377  22.738  70.418  0.00  0.00    +0.041 C 
BRANCH  49  50
ATOM     50  CG  GLU A  10      21.245  22.259  71.846  0.00  0.00    +0.116 C 
BRANCH  50  51
ATOM     51  CD  GLU A  10      22.317  22.867  72.760  0.00  0.00    +0.365 C 
ATOM     52  OE2 GLU A  10      22.459  22.398  73.910  0.00  0.00    -0.246 OA
ATOM     53  OE1 GLU A  10      23.021  23.810  72.325  0.00  0.00    -0.246 OA
ENDBRANCH  50  51
ENDBRANCH  49  50
ENDBRANCH  20  49
ENDBRANCH  17  20
ENDBRANCH  15  16
ENDBRANCH  13  15
ENDBRANCH  10  11
BRANCH  10  54
ATOM     54  CB  PHE A   8      13.033  23.845  66.176  0.00  0.00    +0.055 C 
BRANCH  54  55
ATOM     55  CG  PHE A   8      12.175  24.028  64.967  0.00  0.00    -0.020 A 
ATOM     56  CD2 PHE A   8      11.280  25.081  64.890  0.00  0.00    -0.004 A 
ATOM     57  CE2 PHE A   8      10.487  25.254  63.754  0.00  0.00    -0.000 A 
ATOM     58  CZ  PHE A   8      10.592  24.384  62.692  0.00  0.00    -0.000 A 
ATOM     59  CE1 PHE A   8      11.489  23.332  62.761  0.00  0.00    -0.000 A 
ATOM     60  CD1 PHE A   8      12.276  23.160  63.898  0.00  0.00    -0.004 A 
ENDBRANCH  54  55
ENDBRANCH  10  54
ENDBRANCH   8  10
ENDBRANCH   5   6
BRANCH   5  61
ATOM     61  CB  SER A   7      15.353  23.178  62.096  0.00  0.00    +0.166 C 
BRANCH  61  62
ATOM     62  OG  SER A   7      15.682  23.848  60.896  0.00  0.00    -0.380 OA
ATOM     63  H   SER A   7      15.074  23.548  60.174  0.00  0.00    +0.211 HD
ENDBRANCH  61  62
ENDBRANCH   5  61
ENDBRANCH   3   5
BRANCH   1  64
ATOM     64  CA  GLY A   6      19.787  22.353  63.667  0.00  0.00    +0.176 C 
BRANCH  64  66
ATOM     65  C   LYS A   5      21.747  23.199  64.761  0.00  0.00    +0.241 C 
ATOM     66  N   GLY A   6      20.572  22.613  64.840  0.00  0.00    -0.295 N 
ATOM     67  H   GLY A   6      20.204  22.332  65.771  0.00  0.00    +0.150 HD
ATOM     68  O   LYS A   5      22.315  23.440  63.704  0.00  0.00    -0.273 OA
BRANCH  65  69
ATOM     69  CA  LYS A   5      22.395  23.508  66.076  0.00  0.00    +0.149 C 
BRANCH  69  72
ATOM     70  C   GLY A   4      23.777  21.621  66.613  0.00  0.00    +0.243 C 
ATOM     71  O   GLY A   4      23.030  21.233  67.513  0.00  0.00    -0.273 OA
ATOM     72  N   LYS A   5      23.639  22.789  66.008  0.00  0.00    -0.297 N 
ATOM     73  H   LYS A   5      24.438  23.192  65.478  0.00  0.00    +0.150 HD
BRANCH  70  74
ATOM     74  CA  GLY A   4      24.955  20.797  66.153  0.00  0.00    +0.176 C 
BRANCH  74  76
ATOM     75  C   LEU A   3      25.616  18.478  66.383  0.00  0.00    +0.241 C 
ATOM     76  N   GLY A   4      25.096  19.572  66.912  0.00  0.00    -0.295 N 
ATOM     77  H   GLY A   4      24.779  19.552  67.902  0.00  0.00    +0.150 HD
ATOM     78  O   LEU A   3      25.977  18.397  65.211  0.00  0.00    -0.273 OA
BRANCH  75  79
ATOM     79  CA  LEU A   3      25.746  17.306  67.327  0.00  0.00    +0.149 C 
BRANCH  79  82
ATOM     80  C   VAL A   2      26.920  17.859  69.393  0.00  0.00    +0.241 C 
ATOM     81  O   VAL A   2      27.999  17.543  68.915  0.00  0.00    -0.273 OA
ATOM     82  N   LEU A   3      25.780  17.767  68.720  0.00  0.00    -0.297 N 
ATOM     83  H   LEU A   3      24.890  18.028  69.191  0.00  0.00    +0.150 HD
BRANCH  80  84
ATOM     84  CA  VAL A   2      26.820  18.362  70.829  0.00  0.00    +0.148 C 
BRANCH  84  86
ATOM     85  C   ARG A   1      27.561  16.400  72.075  0.00  0.00    +0.238 C 
ATOM     86  N   VAL A   2      27.780  17.662  71.715  0.00  0.00    -0.297 N 
ATOM     87  H   VAL A   2      28.627  18.159  72.056  0.00  0.00    +0.150 HD
ATOM     88  O   ARG A   1      26.568  15.774  71.697  0.00  0.00    -0.274 OA
BRANCH  85  89
ATOM     89  CA  ARG A   1      28.593  15.747  72.995  0.00  0.00    +0.145 C 
BRANCH  89  90
ATOM     90  N   ARG A   1      27.977  14.683  73.807  0.00  0.00    -0.238 NA
ATOM     91  H   ARG A   1      27.043  14.322  73.526  0.00  0.00    +0.142 HD
ENDBRANCH  89  90
BRANCH  89  92
ATOM     92  CB  ARG A   1      29.776  15.208  72.167  0.00  0.00    +0.030 C 
BRANCH  92  93
ATOM     93  CG  ARG A   1      29.451  14.033  71.254  0.00  0.00    +0.045 C 
BRANCH  93  94
ATOM     94  CD  ARG A   1      30.690  13.525  70.506  0.00  0.00    +0.174 C 
BRANCH  94  95
ATOM     95  NE  ARG A   1      30.373  13.107  69.138  0.00  0.00    -0.265 N 
ATOM     96  HE  ARG A   1      30.236  12.091  68.966  0.00  0.00    +0.259 HD
ATOM     97  CZ  ARG A   1      30.247  13.931  68.097  0.00  0.00    +0.342 C 
ATOM     98  NH2 ARG A   1      30.418  15.240  68.242  0.00  0.00    -0.292 N 
ATOM     99 HH21 ARG A   1      30.653  15.633  69.176  0.00  0.00    +0.255 HD
ATOM    100 HH22 ARG A   1      30.317  15.872  67.422  0.00  0.00    +0.255 HD
ATOM    101  NH1 ARG A   1      29.955  13.438  66.901  0.00  0.00    -0.292 N 
ATOM    102 HH11 ARG A   1      29.825  12.413  66.778  0.00  0.00    +0.255 HD
ATOM    103 HH12 ARG A   1      29.856  14.076  66.086  0.00  0.00    +0.255 HD
ENDBRANCH  94  95
ENDBRANCH  93  94
ENDBRANCH  92  93
ENDBRANCH  89  92
ENDBRANCH  85  89
ENDBRANCH  84  86
BRANCH  84 104
ATOM    104  CB  VAL A   2      27.018  19.878  70.819  0.00  0.00    +0.027 C 
ATOM    105  CG2 VAL A   2      27.038  20.417  72.234  0.00  0.00    +0.002 C 
ATOM    106  CG1 VAL A   2      25.916  20.548  70.004  0.00  0.00    +0.002 C 
ENDBRANCH  84 104
ENDBRANCH  80  84
ENDBRANCH  79  82
BRANCH  79 107
ATOM    107  CB  LEU A   3      24.601  16.334  67.105  0.00  0.00    +0.029 C 
BRANCH 107 108
ATOM    108  CG  LEU A   3      24.907  14.934  67.628  0.00  0.00    +0.002 C 
ATOM    109  CD2 LEU A   3      23.771  13.984  67.339  0.00  0.00    +0.000 C 
ATOM    110  CD1 LEU A   3      26.221  14.388  67.051  0.00  0.00    +0.000 C 
ENDBRANCH 107 108
ENDBRANCH  79 107
ENDBRANCH  75  79
ENDBRANCH  74  76
ENDBRANCH  70  74
ENDBRANCH  69  72
BRANCH  69 111
ATOM    111  CB  LYS A   5      22.586  25.009  66.224  0.00  0.00    +0.029 C 
BRANCH 111 112
ATOM    112  CG  LYS A   5      21.536  25.648  67.098  0.00  0.00    +0.000 C 
BRANCH 112 113
ATOM    113  CD  LYS A   5      20.269  25.932  66.322  0.00  0.00    -0.024 C 
BRANCH 113 114
ATOM    114  CE  LYS A   5      19.368  26.889  67.075  0.00  0.00    -0.086 C 
BRANCH 114 115
ATOM    115  NZ  LYS A   5      18.026  26.983  66.445  0.00  0.00    +0.380 N 
ATOM    116  HZ1 LYS A   5      17.436  27.646  66.986  0.00  0.00    -0.089 HD
ATOM    117  HZ2 LYS A   5      17.580  26.044  66.441  0.00  0.00    -0.089 HD
ATOM    118  HZ3 LYS A   5      18.126  27.324  65.468  0.00  0.00    -0.089 HD
ENDBRANCH 114 115
ENDBRANCH 113 114
ENDBRANCH 112 113
ENDBRANCH 111 112
ENDBRANCH  69 111
ENDBRANCH  65  69
ENDBRANCH  64  66
ENDBRANCH   1  64
TORSDOF 50
REMARK  Name = ../refined-set-2016/3t3u/3t3u_pocket.pdb
REMARK  234 active torsions:
REMARK  status: ('A' for Active; 'I' for Inactive)
REMARK    1  A    between atoms: _1  and  _3
REMARK    2  A    between atoms: _3  and  _4
REMARK    3  A    between atoms: _3  and  _6
REMARK    4  A    between atoms: _6  and  _7
REMARK    5  A    between atoms: _7  and  _8
REMARK    6  A    between atoms: _8  and  _9
REMARK    7  A    between atoms: _18  and  _20
REMARK    8  A    between atoms: _20  and  _21
REMARK    9  A    between atoms: _20  and  _23
REMARK   10  A    between atoms: _26  and  _28
REMARK   11  A    between atoms: _28  and  _29
REMARK   12  A    between atoms: _28  and  _31
REMARK   13  A    between atoms: _31  and  _32
REMARK   14  A    between atoms: _35  and  _37
REMARK   15  A    between atoms: _37  and  _38
REMARK   16  A    between atoms: _40  and  _42
REMARK   17  A    between atoms: _42  and  _43
REMARK   18  A    between atoms: _42  and  _45
REMARK   19  A    between atoms: _45  and  _46
REMARK   20  A    between atoms: _46  and  _47
REMARK   21  A    between atoms: _47  and  _48
REMARK   22  A    between atoms: _48  and  _49
REMARK   23  A    between atoms: _53  and  _55
REMARK   24  A    between atoms: _55  and  _56
REMARK   25  A    between atoms: _58  and  _60
REMARK   26  A    between atoms: _60  and  _61
REMARK   27  A    between atoms: _60  and  _63
REMARK   28  A    between atoms: _63  and  _64
REMARK   29  A    between atoms: _66  and  _68
REMARK   30  A    between atoms: _68  and  _69
REMARK   31  A    between atoms: _68  and  _71
REMARK   32  A    between atoms: _71  and  _72
REMARK   33  A    between atoms: _78  and  _80
REMARK   34  A    between atoms: _80  and  _81
REMARK   35  A    between atoms: _83  and  _85
REMARK   36  A    between atoms: _85  and  _86
REMARK   37  A    between atoms: _85  and  _88
REMARK   38  A    between atoms: _88  and  _89
REMARK   39  A    between atoms: _89  and  _90
REMARK   40  A    between atoms: _93  and  _95
REMARK   41  A    between atoms: _95  and  _96
REMARK   42  A    between atoms: _95  and  _98
REMARK   43  A    between atoms: _101  and  _103
REMARK   44  A    between atoms: _103  and  _104
REMARK   45  A    between atoms: _103  and  _106
REMARK   46  A    between atoms: _106  and  _107
REMARK   47  A    between atoms: _110  and  _112
REMARK   48  A    between atoms: _112  and  _113
REMARK   49  A    between atoms: _112  and  _115
REMARK   50  A    between atoms: _115  and  _116
REMARK   51  A    between atoms: _119  and  _121
REMARK   52  A    between atoms: _121  and  _122
REMARK   53  A    between atoms: _121  and  _124
REMARK   54  A    between atoms: _126  and  _128
REMARK   55  A    between atoms: _128  and  _129
REMARK   56  A    between atoms: _132  and  _134
REMARK   57  A    between atoms: _134  and  _135
REMARK   58  A    between atoms: _134  and  _137
REMARK   59  A    between atoms: _140  and  _142
REMARK   60  A    between atoms: _142  and  _143
REMARK   61  A    between atoms: _142  and  _145
REMARK   62  A    between atoms: _145  and  _146
REMARK   63  A    between atoms: _146  and  _147
REMARK   64  A    between atoms: _147  and  _148
REMARK   65  A    between atoms: _148  and  _149
REMARK   66  A    between atoms: _153  and  _155
REMARK   67  A    between atoms: _155  and  _156
REMARK   68  A    between atoms: _155  and  _158
REMARK   69  A    between atoms: _161  and  _163
REMARK   70  A    between atoms: _163  and  _164
REMARK   71  A    between atoms: _163  and  _166
REMARK   72  A    between atoms: _166  and  _167
REMARK   73  A    between atoms: _170  and  _172
REMARK   74  A    between atoms: _172  and  _173
REMARK   75  A    between atoms: _172  and  _175
REMARK   76  A    between atoms: _178  and  _180
REMARK   77  A    between atoms: _180  and  _181
REMARK   78  A    between atoms: _180  and  _183
REMARK   79  A    between atoms: _183  and  _184
REMARK   80  A    between atoms: _187  and  _189
REMARK   81  A    between atoms: _189  and  _190
REMARK   82  A    between atoms: _189  and  _192
REMARK   83  A    between atoms: _192  and  _193
REMARK   84  A    between atoms: _193  and  _194
REMARK   85  A    between atoms: _196  and  _198
REMARK   86  A    between atoms: _198  and  _199
REMARK   87  A    between atoms: _198  and  _201
REMARK   88  A    between atoms: _201  and  _202
REMARK   89  A    between atoms: _202  and  _203
REMARK   90  A    between atoms: _203  and  _204
REMARK   91  A    between atoms: _204  and  _205
REMARK   92  A    between atoms: _209  and  _211
REMARK   93  A    between atoms: _211  and  _212
REMARK   94  A    between atoms: _211  and  _214
REMARK   95  A    between atoms: _214  and  _215
REMARK   96  A    between atoms: _218  and  _220
REMARK   97  A    between atoms: _220  and  _221
REMARK   98  A    between atoms: _220  and  _223
REMARK   99  A    between atoms: _223  and  _224
REMARK  100  A    between atoms: _229  and  _230
REMARK  101  A    between atoms: _232  and  _234
REMARK  102  A    between atoms: _234  and  _235
REMARK  103  A    between atoms: _234  and  _237
REMARK  104  A    between atoms: _237  and  _238
REMARK  105  A    between atoms: _238  and  _239
REMARK  106  A    between atoms: _242  and  _244
REMARK  107  A    between atoms: _244  and  _245
REMARK  108  A    between atoms: _244  and  _247
REMARK  109  A    between atoms: _247  and  _248
REMARK  110  A    between atoms: _254  and  _256
REMARK  111  A    between atoms: _256  and  _257
REMARK  112  A    between atoms: _256  and  _259
REMARK  113  A    between atoms: _259  and  _260
REMARK  114  A    between atoms: _265  and  _266
REMARK  115  A    between atoms: _268  and  _270
REMARK  116  A    between atoms: _270  and  _271
REMARK  117  A    between atoms: _270  and  _273
REMARK  118  A    between atoms: _273  and  _274
REMARK  119  A    between atoms: _277  and  _279
REMARK  120  A    between atoms: _279  and  _280
REMARK  121  A    between atoms: _279  and  _282
REMARK  122  A    between atoms: _285  and  _287
REMARK  123  A    between atoms: _287  and  _288
REMARK  124  A    between atoms: _290  and  _292
REMARK  125  A    between atoms: _292  and  _293
REMARK  126  A    between atoms: _292  and  _295
REMARK  127  A    between atoms: _295  and  _296
REMARK  128  A    between atoms: _296  and  _297
REMARK  129  A    between atoms: _300  and  _302
REMARK  130  A    between atoms: _302  and  _303
REMARK  131  A    between atoms: _302  and  _305
REMARK  132  A    between atoms: _308  and  _310
REMARK  133  A    between atoms: _310  and  _311
REMARK  134  A    between atoms: _310  and  _313
REMARK  135  A    between atoms: _313  and  _314
REMARK  136  A    between atoms: _319  and  _320
REMARK  137  A    between atoms: _322  and  _324
REMARK  138  A    between atoms: _324  and  _325
REMARK  139  A    between atoms: _324  and  _327
REMARK  140  A    between atoms: _327  and  _328
REMARK  141  A    between atoms: _331  and  _333
REMARK  142  A    between atoms: _333  and  _334
REMARK  143  A    between atoms: _336  and  _338
REMARK  144  A    between atoms: _338  and  _339
REMARK  145  A    between atoms: _341  and  _343
REMARK  146  A    between atoms: _343  and  _344
REMARK  147  A    between atoms: _343  and  _346
REMARK  148  A    between atoms: _346  and  _347
REMARK  149  A    between atoms: _347  and  _348
REMARK  150  A    between atoms: _351  and  _353
REMARK  151  A    between atoms: _353  and  _354
REMARK  152  A    between atoms: _353  and  _356
REMARK  153  A    between atoms: _356  and  _357
REMARK  154  A    between atoms: _360  and  _362
REMARK  155  A    between atoms: _362  and  _363
REMARK  156  A    between atoms: _362  and  _365
REMARK  157  A    between atoms: _365  and  _366
REMARK  158  A    between atoms: _369  and  _371
REMARK  159  A    between atoms: _371  and  _372
REMARK  160  A    between atoms: _371  and  _374
REMARK  161  A    between atoms: _374  and  _375
REMARK  162  A    between atoms: _380  and  _382
REMARK  163  A    between atoms: _382  and  _383
REMARK  164  A    between atoms: _382  and  _385
REMARK  165  A    between atoms: _385  and  _386
REMARK  166  A    between atoms: _386  and  _387
REMARK  167  A    between atoms: _387  and  _388
REMARK  168  A    between atoms: _388  and  _389
REMARK  169  A    between atoms: _394  and  _395
REMARK  170  A    between atoms: _400  and  _402
REMARK  171  A    between atoms: _402  and  _403
REMARK  172  A    between atoms: _402  and  _405
REMARK  173  A    between atoms: _405  and  _406
REMARK  174  A    between atoms: _406  and  _407
REMARK  175  A    between atoms: _410  and  _412
REMARK  176  A    between atoms: _412  and  _413
REMARK  177  A    between atoms: _412  and  _415
REMARK  178  A    between atoms: _415  and  _416
REMARK  179  A    between atoms: _421  and  _423
REMARK  180  A    between atoms: _423  and  _424
REMARK  181  A    between atoms: _423  and  _426
REMARK  182  A    between atoms: _426  and  _427
REMARK  183  A    between atoms: _430  and  _432
REMARK  184  A    between atoms: _432  and  _433
REMARK  185  A    between atoms: _432  and  _435
REMARK  186  A    between atoms: _435  and  _436
REMARK  187  A    between atoms: _439  and  _441
REMARK  188  A    between atoms: _441  and  _442
REMARK  189  A    between atoms: _441  and  _444
REMARK  190  A    between atoms: _444  and  _445
REMARK  191  A    between atoms: _448  and  _450
REMARK  192  A    between atoms: _450  and  _451
REMARK  193  A    between atoms: _450  and  _453
REMARK  194  A    between atoms: _453  and  _454
REMARK  195  A    between atoms: _454  and  _455
REMARK  196  A    between atoms: _455  and  _456
REMARK  197  A    between atoms: _465  and  _467
REMARK  198  A    between atoms: _467  and  _468
REMARK  199  A    between atoms: _467  and  _470
REMARK  200  A    between atoms: _470  and  _471
REMARK  201  A    between atoms: _474  and  _476
REMARK  202  A    between atoms: _476  and  _477
REMARK  203  A    between atoms: _476  and  _479
REMARK  204  A    between atoms: _479  and  _480
REMARK  205  A    between atoms: _483  and  _485
REMARK  206  A    between atoms: _485  and  _486
REMARK  207  A    between atoms: _485  and  _488
REMARK  208  A    between atoms: _488  and  _489
REMARK  209  A    between atoms: _492  and  _494
REMARK  210  A    between atoms: _494  and  _495
REMARK  211  A    between atoms: _494  and  _497
REMARK  212  A    between atoms: _497  and  _498
REMARK  213  A    between atoms: _504  and  _506
REMARK  214  A    between atoms: _506  and  _507
REMARK  215  A    between atoms: _509  and  _511
REMARK  216  A    between atoms: _511  and  _512
REMARK  217  A    between atoms: _511  and  _514
REMARK  218  A    between atoms: _514  and  _515
REMARK  219  A    between atoms: _518  and  _520
REMARK  220  A    between atoms: _520  and  _521
REMARK  221  A    between atoms: _520  and  _523
REMARK  222  A    between atoms: _523  and  _524
REMARK  223  A    between atoms: _530  and  _532
REMARK  224  A    between atoms: _532  and  _533
REMARK  225  A    between atoms: _532  and  _535
REMARK  226  A    between atoms: _535  and  _536
REMARK  227  A    between atoms: _536  and  _537
REMARK  228  A    between atoms: _537  and  _538
REMARK  229  A    between atoms: _538  and  _539
REMARK  230  A    between atoms: _543  and  _545
REMARK  231  A    between atoms: _545  and  _546
REMARK  232  A    between atoms: _545  and  _548
REMARK  233  A    between atoms: _548  and  _549
REMARK  234  A    between atoms: _549  and  _550
REMARK                            x       y       z     vdW  Elec       q    Type
REMARK                         _______ _______ _______ _____ _____    ______ ____
ROOT
ATOM      1  CA  LYS A   4      16.550  17.658  69.556  0.00  0.00    +0.149 C 
ENDROOT
BRANCH   1   4
ATOM      2  C   VAL A   3      17.966  15.939  70.506  0.00  0.00    +0.241 C 
ATOM      3  O   VAL A   3      18.887  16.724  70.671  0.00  0.00    -0.273 OA
ATOM      4  N   LYS A   4      16.830  16.268  69.912  0.00  0.00    -0.297 N 
ATOM      5  H   LYS A   4      16.129  15.530  69.696  0.00  0.00    +0.150 HD
BRANCH   2   6
ATOM      6  CA  VAL A   3      18.078  14.502  70.965  0.00  0.00    +0.149 C 
BRANCH   6   8
ATOM      7  C   ALA A   2      19.041  12.928  69.415  0.00  0.00    +0.241 C 
ATOM      8  N   VAL A   3      19.229  13.861  70.336  0.00  0.00    -0.297 N 
ATOM      9  H   VAL A   3      20.194  14.136  70.610  0.00  0.00    +0.150 HD
ATOM     10  O   ALA A   2      17.917  12.599  69.028  0.00  0.00    -0.273 OA
BRANCH   7  11
ATOM     11  CA  ALA A   2      20.291  12.257  68.870  0.00  0.00    +0.149 C 
ATOM     12  CB  ALA A   2      20.422  12.508  67.368  0.00  0.00    +0.031 C 
BRANCH  11  15
ATOM     13  C   CYS A   1      20.961  10.271  70.149  0.00  0.00    +0.239 C 
ATOM     14  O   CYS A   1      21.794  10.882  70.826  0.00  0.00    -0.274 OA
ATOM     15  N   ALA A   2      20.250  10.822  69.158  0.00  0.00    -0.297 N 
ATOM     16  H   ALA A   2      19.647  10.210  68.572  0.00  0.00    +0.150 HD
BRANCH  13  17
ATOM     17  CA  CYS A   1      20.696   8.796  70.399  0.00  0.00    +0.156 C 
BRANCH  17  18
ATOM     18  N   CYS A   1      21.802   8.173  71.110  0.00  0.00    -0.237 NA
ATOM     19  H   CYS A   1      22.389   8.748  71.747  0.00  0.00    +0.142 HD
ENDBRANCH  17  18
BRANCH  17  20
ATOM     20  CB  CYS A   1      19.386   8.606  71.158  0.00  0.00    +0.095 C 
ATOM     21  SG  CYS A   1      19.386   9.345  72.785  0.00  0.00    -0.080 S 
ENDBRANCH  17  20
ENDBRANCH  13  17
ENDBRANCH  11  15
ENDBRANCH   7  11
ENDBRANCH   6   8
BRANCH   6  22
ATOM     22  CB  VAL A   3      18.130  14.445  72.507  0.00  0.00    +0.027 C 
ATOM     23  CG2 VAL A   3      16.901  15.134  73.112  0.00  0.00    +0.002 C 
ATOM     24  CG1 VAL A   3      18.221  13.009  72.962  0.00  0.00    +0.002 C 
ENDBRANCH   6  22
ENDBRANCH   2   6
ENDBRANCH   1   4
BRANCH   1  25
ATOM     25  C   LYS A   4      15.900  18.315  70.767  0.00  0.00    +0.241 C 
ATOM     26  N   VAL A   5      16.543  19.359  71.267  0.00  0.00    -0.297 N 
ATOM     27  H   VAL A   5      17.450  19.640  70.842  0.00  0.00    +0.150 HD
ATOM     28  O   LYS A   4      14.864  17.869  71.245  0.00  0.00    -0.273 OA
BRANCH  26  29
ATOM     29  CA  VAL A   5      16.026  20.131  72.394  0.00  0.00    +0.149 C 
BRANCH  29  30
ATOM     30  C   VAL A   5      15.477  21.477  71.893  0.00  0.00    +0.241 C 
ATOM     31  N   ILE A   6      14.164  21.635  72.064  0.00  0.00    -0.298 N 
ATOM     32  H   ILE A   6      13.631  20.859  72.506  0.00  0.00    +0.150 HD
ATOM     33  O   VAL A   5      16.216  22.323  71.361  0.00  0.00    -0.273 OA
BRANCH  31  34
ATOM     34  CA  ILE A   6      13.428  22.840  71.665  0.00  0.00    +0.137 C 
BRANCH  34  35
ATOM     35  CB  ILE A   6      12.190  22.516  70.829  0.00  0.00    +0.026 C 
ATOM     36  CG2 ILE A   6      11.528  23.784  70.359  0.00  0.00    +0.002 C 
BRANCH  35  37
ATOM     37  CG1 ILE A   6      12.580  21.688  69.629  0.00  0.00    +0.002 C 
ATOM     38  CD1 ILE A   6      11.415  21.144  68.905  0.00  0.00    +0.000 C 
ENDBRANCH  35  37
ENDBRANCH  34  35
BRANCH  34  39
ATOM     39  C   ILE A   6      12.938  23.609  72.873  0.00  0.00    +0.227 C 
ATOM     40  O   ILE A   6      12.100  23.133  73.631  0.00  0.00    -0.286 OA
ENDBRANCH  34  39
ENDBRANCH  31  34
ENDBRANCH  29  30
BRANCH  29  41
ATOM     41  CB  VAL A   5      17.085  20.362  73.489  0.00  0.00    +0.027 C 
ATOM     42  CG2 VAL A   5      16.450  21.033  74.713  0.00  0.00    +0.002 C 
ATOM     43  CG1 VAL A   5      17.751  19.032  73.904  0.00  0.00    +0.002 C 
ENDBRANCH  29  41
ENDBRANCH  26  29
ENDBRANCH   1  25
BRANCH   1  44
ATOM     44  CB  LYS A   4      15.640  17.769  68.324  0.00  0.00    +0.029 C 
BRANCH  44  45
ATOM     45  CG  LYS A   4      15.393  19.249  67.865  0.00  0.00    +0.000 C 
BRANCH  45  46
ATOM     46  CD  LYS A   4      15.124  19.343  66.353  0.00  0.00    -0.024 C 
BRANCH  46  47
ATOM     47  CE  LYS A   4      16.413  19.417  65.533  0.00  0.00    -0.086 C 
BRANCH  47  48
ATOM     48  NZ  LYS A   4      16.192  19.870  64.111  0.00  0.00    +0.380 N 
ATOM     49  HZ1 LYS A   4      15.767  20.819  64.113  0.00  0.00    -0.089 HD
ATOM     50  HZ2 LYS A   4      15.553  19.204  63.632  0.00  0.00    -0.089 HD
ATOM     51  HZ3 LYS A   4      17.104  19.898  63.612  0.00  0.00    -0.089 HD
ENDBRANCH  47  48
ENDBRANCH  46  47
ENDBRANCH  45  46
ENDBRANCH  44  45
ENDBRANCH   1  44
TORSDOF 22
REMARK  Name = ../refined-set-2016/3t3u/3t3u_pocket.pdb
REMARK  234 active torsions:
REMARK  status: ('A' for Active; 'I' for Inactive)
REMARK    1  A    between atoms: _1  and  _3
REMARK    2  A    between atoms: _3  and  _4
REMARK    3  A    between atoms: _3  and  _6
REMARK    4  A    between atoms: _6  and  _7
REMARK    5  A    between atoms: _7  and  _8
REMARK    6  A    between atoms: _8  and  _9
REMARK    7  A    between atoms: _18  and  _20
REMARK    8  A    between atoms: _20  and  _21
REMARK    9  A    between atoms: _20  and  _23
REMARK   10  A    between atoms: _26  and  _28
REMARK   11  A    between atoms: _28  and  _29
REMARK   12  A    between atoms: _28  and  _31
REMARK   13  A    between atoms: _31  and  _32
REMARK   14  A    between atoms: _35  and  _37
REMARK   15  A    between atoms: _37  and  _38
REMARK   16  A    between atoms: _40  and  _42
REMARK   17  A    between atoms: _42  and  _43
REMARK   18  A    between atoms: _42  and  _45
REMARK   19  A    between atoms: _45  and  _46
REMARK   20  A    between atoms: _46  and  _47
REMARK   21  A    between atoms: _47  and  _48
REMARK   22  A    between atoms: _48  and  _49
REMARK   23  A    between atoms: _53  and  _55
REMARK   24  A    between atoms: _55  and  _56
REMARK   25  A    between atoms: _58  and  _60
REMARK   26  A    between atoms: _60  and  _61
REMARK   27  A    between atoms: _60  and  _63
REMARK   28  A    between atoms: _63  and  _64
REMARK   29  A    between atoms: _66  and  _68
REMARK   30  A    between atoms: _68  and  _69
REMARK   31  A    between atoms: _68  and  _71
REMARK   32  A    between atoms: _71  and  _72
REMARK   33  A    between atoms: _78  and  _80
REMARK   34  A    between atoms: _80  and  _81
REMARK   35  A    between atoms: _83  and  _85
REMARK   36  A    between atoms: _85  and  _86
REMARK   37  A    between atoms: _85  and  _88
REMARK   38  A    between atoms: _88  and  _89
REMARK   39  A    between atoms: _89  and  _90
REMARK   40  A    between atoms: _93  and  _95
REMARK   41  A    between atoms: _95  and  _96
REMARK   42  A    between atoms: _95  and  _98
REMARK   43  A    between atoms: _101  and  _103
REMARK   44  A    between atoms: _103  and  _104
REMARK   45  A    between atoms: _103  and  _106
REMARK   46  A    between atoms: _106  and  _107
REMARK   47  A    between atoms: _110  and  _112
REMARK   48  A    between atoms: _112  and  _113
REMARK   49  A    between atoms: _112  and  _115
REMARK   50  A    between atoms: _115  and  _116
REMARK   51  A    between atoms: _119  and  _121
REMARK   52  A    between atoms: _121  and  _122
REMARK   53  A    between atoms: _121  and  _124
REMARK   54  A    between atoms: _126  and  _128
REMARK   55  A    between atoms: _128  and  _129
REMARK   56  A    between atoms: _132  and  _134
REMARK   57  A    between atoms: _134  and  _135
REMARK   58  A    between atoms: _134  and  _137
REMARK   59  A    between atoms: _140  and  _142
REMARK   60  A    between atoms: _142  and  _143
REMARK   61  A    between atoms: _142  and  _145
REMARK   62  A    between atoms: _145  and  _146
REMARK   63  A    between atoms: _146  and  _147
REMARK   64  A    between atoms: _147  and  _148
REMARK   65  A    between atoms: _148  and  _149
REMARK   66  A    between atoms: _153  and  _155
REMARK   67  A    between atoms: _155  and  _156
REMARK   68  A    between atoms: _155  and  _158
REMARK   69  A    between atoms: _161  and  _163
REMARK   70  A    between atoms: _163  and  _164
REMARK   71  A    between atoms: _163  and  _166
REMARK   72  A    between atoms: _166  and  _167
REMARK   73  A    between atoms: _170  and  _172
REMARK   74  A    between atoms: _172  and  _173
REMARK   75  A    between atoms: _172  and  _175
REMARK   76  A    between atoms: _178  and  _180
REMARK   77  A    between atoms: _180  and  _181
REMARK   78  A    between atoms: _180  and  _183
REMARK   79  A    between atoms: _183  and  _184
REMARK   80  A    between atoms: _187  and  _189
REMARK   81  A    between atoms: _189  and  _190
REMARK   82  A    between atoms: _189  and  _192
REMARK   83  A    between atoms: _192  and  _193
REMARK   84  A    between atoms: _193  and  _194
REMARK   85  A    between atoms: _196  and  _198
REMARK   86  A    between atoms: _198  and  _199
REMARK   87  A    between atoms: _198  and  _201
REMARK   88  A    between atoms: _201  and  _202
REMARK   89  A    between atoms: _202  and  _203
REMARK   90  A    between atoms: _203  and  _204
REMARK   91  A    between atoms: _204  and  _205
REMARK   92  A    between atoms: _209  and  _211
REMARK   93  A    between atoms: _211  and  _212
REMARK   94  A    between atoms: _211  and  _214
REMARK   95  A    between atoms: _214  and  _215
REMARK   96  A    between atoms: _218  and  _220
REMARK   97  A    between atoms: _220  and  _221
REMARK   98  A    between atoms: _220  and  _223
REMARK   99  A    between atoms: _223  and  _224
REMARK  100  A    between atoms: _229  and  _230
REMARK  101  A    between atoms: _232  and  _234
REMARK  102  A    between atoms: _234  and  _235
REMARK  103  A    between atoms: _234  and  _237
REMARK  104  A    between atoms: _237  and  _238
REMARK  105  A    between atoms: _238  and  _239
REMARK  106  A    between atoms: _242  and  _244
REMARK  107  A    between atoms: _244  and  _245
REMARK  108  A    between atoms: _244  and  _247
REMARK  109  A    between atoms: _247  and  _248
REMARK  110  A    between atoms: _254  and  _256
REMARK  111  A    between atoms: _256  and  _257
REMARK  112  A    between atoms: _256  and  _259
REMARK  113  A    between atoms: _259  and  _260
REMARK  114  A    between atoms: _265  and  _266
REMARK  115  A    between atoms: _268  and  _270
REMARK  116  A    between atoms: _270  and  _271
REMARK  117  A    between atoms: _270  and  _273
REMARK  118  A    between atoms: _273  and  _274
REMARK  119  A    between atoms: _277  and  _279
REMARK  120  A    between atoms: _279  and  _280
REMARK  121  A    between atoms: _279  and  _282
REMARK  122  A    between atoms: _285  and  _287
REMARK  123  A    between atoms: _287  and  _288
REMARK  124  A    between atoms: _290  and  _292
REMARK  125  A    between atoms: _292  and  _293
REMARK  126  A    between atoms: _292  and  _295
REMARK  127  A    between atoms: _295  and  _296
REMARK  128  A    between atoms: _296  and  _297
REMARK  129  A    between atoms: _300  and  _302
REMARK  130  A    between atoms: _302  and  _303
REMARK  131  A    between atoms: _302  and  _305
REMARK  132  A    between atoms: _308  and  _310
REMARK  133  A    between atoms: _310  and  _311
REMARK  134  A    between atoms: _310  and  _313
REMARK  135  A    between atoms: _313  and  _314
REMARK  136  A    between atoms: _319  and  _320
REMARK  137  A    between atoms: _322  and  _324
REMARK  138  A    between atoms: _324  and  _325
REMARK  139  A    between atoms: _324  and  _327
REMARK  140  A    between atoms: _327  and  _328
REMARK  141  A    between atoms: _331  and  _333
REMARK  142  A    between atoms: _333  and  _334
REMARK  143  A    between atoms: _336  and  _338
REMARK  144  A    between atoms: _338  and  _339
REMARK  145  A    between atoms: _341  and  _343
REMARK  146  A    between atoms: _343  and  _344
REMARK  147  A    between atoms: _343  and  _346
REMARK  148  A    between atoms: _346  and  _347
REMARK  149  A    between atoms: _347  and  _348
REMARK  150  A    between atoms: _351  and  _353
REMARK  151  A    between atoms: _353  and  _354
REMARK  152  A    between atoms: _353  and  _356
REMARK  153  A    between atoms: _356  and  _357
REMARK  154  A    between atoms: _360  and  _362
REMARK  155  A    between atoms: _362  and  _363
REMARK  156  A    between atoms: _362  and  _365
REMARK  157  A    between atoms: _365  and  _366
REMARK  158  A    between atoms: _369  and  _371
REMARK  159  A    between atoms: _371  and  _372
REMARK  160  A    between atoms: _371  and  _374
REMARK  161  A    between atoms: _374  and  _375
REMARK  162  A    between atoms: _380  and  _382
REMARK  163  A    between atoms: _382  and  _383
REMARK  164  A    between atoms: _382  and  _385
REMARK  165  A    between atoms: _385  and  _386
REMARK  166  A    between atoms: _386  and  _387
REMARK  167  A    between atoms: _387  and  _388
REMARK  168  A    between atoms: _388  and  _389
REMARK  169  A    between atoms: _394  and  _395
REMARK  170  A    between atoms: _400  and  _402
REMARK  171  A    between atoms: _402  and  _403
REMARK  172  A    between atoms: _402  and  _405
REMARK  173  A    between atoms: _405  and  _406
REMARK  174  A    between atoms: _406  and  _407
REMARK  175  A    between atoms: _410  and  _412
REMARK  176  A    between atoms: _412  and  _413
REMARK  177  A    between atoms: _412  and  _415
REMARK  178  A    between atoms: _415  and  _416
REMARK  179  A    between atoms: _421  and  _423
REMARK  180  A    between atoms: _423  and  _424
REMARK  181  A    between atoms: _423  and  _426
REMARK  182  A    between atoms: _426  and  _427
REMARK  183  A    between atoms: _430  and  _432
REMARK  184  A    between atoms: _432  and  _433
REMARK  185  A    between atoms: _432  and  _435
REMARK  186  A    between atoms: _435  and  _436
REMARK  187  A    between atoms: _439  and  _441
REMARK  188  A    between atoms: _441  and  _442
REMARK  189  A    between atoms: _441  and  _444
REMARK  190  A    between atoms: _444  and  _445
REMARK  191  A    between atoms: _448  and  _450
REMARK  192  A    between atoms: _450  and  _451
REMARK  193  A    between atoms: _450  and  _453
REMARK  194  A    between atoms: _453  and  _454
REMARK  195  A    between atoms: _454  and  _455
REMARK  196  A    between atoms: _455  and  _456
REMARK  197  A    between atoms: _465  and  _467
REMARK  198  A    between atoms: _467  and  _468
REMARK  199  A    between atoms: _467  and  _470
REMARK  200  A    between atoms: _470  and  _471
REMARK  201  A    between atoms: _474  and  _476
REMARK  202  A    between atoms: _476  and  _477
REMARK  203  A    between atoms: _476  and  _479
REMARK  204  A    between atoms: _479  and  _480
REMARK  205  A    between atoms: _483  and  _485
REMARK  206  A    between atoms: _485  and  _486
REMARK  207  A    between atoms: _485  and  _488
REMARK  208  A    between atoms: _488  and  _489
REMARK  209  A    between atoms: _492  and  _494
REMARK  210  A    between atoms: _494  and  _495
REMARK  211  A    between atoms: _494  and  _497
REMARK  212  A    between atoms: _497  and  _498
REMARK  213  A    between atoms: _504  and  _506
REMARK  214  A    between atoms: _506  and  _507
REMARK  215  A    between atoms: _509  and  _511
REMARK  216  A    between atoms: _511  and  _512
REMARK  217  A    between atoms: _511  and  _514
REMARK  218  A    between atoms: _514  and  _515
REMARK  219  A    between atoms: _518  and  _520
REMARK  220  A    between atoms: _520  and  _521
REMARK  221  A    between atoms: _520  and  _523
REMARK  222  A    between atoms: _523  and  _524
REMARK  223  A    between atoms: _530  and  _532
REMARK  224  A    between atoms: _532  and  _533
REMARK  225  A    between atoms: _532  and  _535
REMARK  226  A    between atoms: _535  and  _536
REMARK  227  A    between atoms: _536  and  _537
REMARK  228  A    between atoms: _537  and  _538
REMARK  229  A    between atoms: _538  and  _539
REMARK  230  A    between atoms: _543  and  _545
REMARK  231  A    between atoms: _545  and  _546
REMARK  232  A    between atoms: _545  and  _548
REMARK  233  A    between atoms: _548  and  _549
REMARK  234  A    between atoms: _549  and  _550
REMARK                            x       y       z     vdW  Elec       q    Type
REMARK                         _______ _______ _______ _____ _____    ______ ____
ROOT
ATOM      1  CA  VAL A   1       4.378  12.839  68.520  0.00  0.00    +0.133 C 
ENDROOT
BRANCH   1   2
ATOM      2  CB  VAL A   1       4.818  13.424  69.886  0.00  0.00    +0.023 C 
ATOM      3  CG2 VAL A   1       5.820  12.501  70.585  0.00  0.00    +0.002 C 
ATOM      4  CG1 VAL A   1       5.401  14.840  69.680  0.00  0.00    +0.002 C 
ENDBRANCH   1   2
BRANCH   1   5
ATOM      5  N   VAL A   1       3.185  13.516  67.983  0.00  0.00    -0.239 NA
ATOM      6  H   VAL A   1       2.725  14.266  68.537  0.00  0.00    +0.142 HD
ENDBRANCH   1   5
BRANCH   1   7
ATOM      7  C   VAL A   1       4.162  11.333  68.662  0.00  0.00    +0.224 C 
ATOM      8  O   VAL A   1       5.015  10.529  68.291  0.00  0.00    -0.287 OA
ENDBRANCH   1   7
TORSDOF 3
REMARK  Name = ../refined-set-2016/3t3u/3t3u_pocket.pdb
REMARK  234 active torsions:
REMARK  status: ('A' for Active; 'I' for Inactive)
REMARK    1  A    between atoms: _1  and  _3
REMARK    2  A    between atoms: _3  and  _4
REMARK    3  A    between atoms: _3  and  _6
REMARK    4  A    between atoms: _6  and  _7
REMARK    5  A    between atoms: _7  and  _8
REMARK    6  A    between atoms: _8  and  _9
REMARK    7  A    between atoms: _18  and  _20
REMARK    8  A    between atoms: _20  and  _21
REMARK    9  A    between atoms: _20  and  _23
REMARK   10  A    between atoms: _26  and  _28
REMARK   11  A    between atoms: _28  and  _29
REMARK   12  A    between atoms: _28  and  _31
REMARK   13  A    between atoms: _31  and  _32
REMARK   14  A    between atoms: _35  and  _37
REMARK   15  A    between atoms: _37  and  _38
REMARK   16  A    between atoms: _40  and  _42
REMARK   17  A    between atoms: _42  and  _43
REMARK   18  A    between atoms: _42  and  _45
REMARK   19  A    between atoms: _45  and  _46
REMARK   20  A    between atoms: _46  and  _47
REMARK   21  A    between atoms: _47  and  _48
REMARK   22  A    between atoms: _48  and  _49
REMARK   23  A    between atoms: _53  and  _55
REMARK   24  A    between atoms: _55  and  _56
REMARK   25  A    between atoms: _58  and  _60
REMARK   26  A    between atoms: _60  and  _61
REMARK   27  A    between atoms: _60  and  _63
REMARK   28  A    between atoms: _63  and  _64
REMARK   29  A    between atoms: _66  and  _68
REMARK   30  A    between atoms: _68  and  _69
REMARK   31  A    between atoms: _68  and  _71
REMARK   32  A    between atoms: _71  and  _72
REMARK   33  A    between atoms: _78  and  _80
REMARK   34  A    between atoms: _80  and  _81
REMARK   35  A    between atoms: _83  and  _85
REMARK   36  A    between atoms: _85  and  _86
REMARK   37  A    between atoms: _85  and  _88
REMARK   38  A    between atoms: _88  and  _89
REMARK   39  A    between atoms: _89  and  _90
REMARK   40  A    between atoms: _93  and  _95
REMARK   41  A    between atoms: _95  and  _96
REMARK   42  A    between atoms: _95  and  _98
REMARK   43  A    between atoms: _101  and  _103
REMARK   44  A    between atoms: _103  and  _104
REMARK   45  A    between atoms: _103  and  _106
REMARK   46  A    between atoms: _106  and  _107
REMARK   47  A    between atoms: _110  and  _112
REMARK   48  A    between atoms: _112  and  _113
REMARK   49  A    between atoms: _112  and  _115
REMARK   50  A    between atoms: _115  and  _116
REMARK   51  A    between atoms: _119  and  _121
REMARK   52  A    between atoms: _121  and  _122
REMARK   53  A    between atoms: _121  and  _124
REMARK   54  A    between atoms: _126  and  _128
REMARK   55  A    between atoms: _128  and  _129
REMARK   56  A    between atoms: _132  and  _134
REMARK   57  A    between atoms: _134  and  _135
REMARK   58  A    between atoms: _134  and  _137
REMARK   59  A    between atoms: _140  and  _142
REMARK   60  A    between atoms: _142  and  _143
REMARK   61  A    between atoms: _142  and  _145
REMARK   62  A    between atoms: _145  and  _146
REMARK   63  A    between atoms: _146  and  _147
REMARK   64  A    between atoms: _147  and  _148
REMARK   65  A    between atoms: _148  and  _149
REMARK   66  A    between atoms: _153  and  _155
REMARK   67  A    between atoms: _155  and  _156
REMARK   68  A    between atoms: _155  and  _158
REMARK   69  A    between atoms: _161  and  _163
REMARK   70  A    between atoms: _163  and  _164
REMARK   71  A    between atoms: _163  and  _166
REMARK   72  A    between atoms: _166  and  _167
REMARK   73  A    between atoms: _170  and  _172
REMARK   74  A    between atoms: _172  and  _173
REMARK   75  A    between atoms: _172  and  _175
REMARK   76  A    between atoms: _178  and  _180
REMARK   77  A    between atoms: _180  and  _181
REMARK   78  A    between atoms: _180  and  _183
REMARK   79  A    between atoms: _183  and  _184
REMARK   80  A    between atoms: _187  and  _189
REMARK   81  A    between atoms: _189  and  _190
REMARK   82  A    between atoms: _189  and  _192
REMARK   83  A    between atoms: _192  and  _193
REMARK   84  A    between atoms: _193  and  _194
REMARK   85  A    between atoms: _196  and  _198
REMARK   86  A    between atoms: _198  and  _199
REMARK   87  A    between atoms: _198  and  _201
REMARK   88  A    between atoms: _201  and  _202
REMARK   89  A    between atoms: _202  and  _203
REMARK   90  A    between atoms: _203  and  _204
REMARK   91  A    between atoms: _204  and  _205
REMARK   92  A    between atoms: _209  and  _211
REMARK   93  A    between atoms: _211  and  _212
REMARK   94  A    between atoms: _211  and  _214
REMARK   95  A    between atoms: _214  and  _215
REMARK   96  A    between atoms: _218  and  _220
REMARK   97  A    between atoms: _220  and  _221
REMARK   98  A    between atoms: _220  and  _223
REMARK   99  A    between atoms: _223  and  _224
REMARK  100  A    between atoms: _229  and  _230
REMARK  101  A    between atoms: _232  and  _234
REMARK  102  A    between atoms: _234  and  _235
REMARK  103  A    between atoms: _234  and  _237
REMARK  104  A    between atoms: _237  and  _238
REMARK  105  A    between atoms: _238  and  _239
REMARK  106  A    between atoms: _242  and  _244
REMARK  107  A    between atoms: _244  and  _245
REMARK  108  A    between atoms: _244  and  _247
REMARK  109  A    between atoms: _247  and  _248
REMARK  110  A    between atoms: _254  and  _256
REMARK  111  A    between atoms: _256  and  _257
REMARK  112  A    between atoms: _256  and  _259
REMARK  113  A    between atoms: _259  and  _260
REMARK  114  A    between atoms: _265  and  _266
REMARK  115  A    between atoms: _268  and  _270
REMARK  116  A    between atoms: _270  and  _271
REMARK  117  A    between atoms: _270  and  _273
REMARK  118  A    between atoms: _273  and  _274
REMARK  119  A    between atoms: _277  and  _279
REMARK  120  A    between atoms: _279  and  _280
REMARK  121  A    between atoms: _279  and  _282
REMARK  122  A    between atoms: _285  and  _287
REMARK  123  A    between atoms: _287  and  _288
REMARK  124  A    between atoms: _290  and  _292
REMARK  125  A    between atoms: _292  and  _293
REMARK  126  A    between atoms: _292  and  _295
REMARK  127  A    between atoms: _295  and  _296
REMARK  128  A    between atoms: _296  and  _297
REMARK  129  A    between atoms: _300  and  _302
REMARK  130  A    between atoms: _302  and  _303
REMARK  131  A    between atoms: _302  and  _305
REMARK  132  A    between atoms: _308  and  _310
REMARK  133  A    between atoms: _310  and  _311
REMARK  134  A    between atoms: _310  and  _313
REMARK  135  A    between atoms: _313  and  _314
REMARK  136  A    between atoms: _319  and  _320
REMARK  137  A    between atoms: _322  and  _324
REMARK  138  A    between atoms: _324  and  _325
REMARK  139  A    between atoms: _324  and  _327
REMARK  140  A    between atoms: _327  and  _328
REMARK  141  A    between atoms: _331  and  _333
REMARK  142  A    between atoms: _333  and  _334
REMARK  143  A    between atoms: _336  and  _338
REMARK  144  A    between atoms: _338  and  _339
REMARK  145  A    between atoms: _341  and  _343
REMARK  146  A    between atoms: _343  and  _344
REMARK  147  A    between atoms: _343  and  _346
REMARK  148  A    between atoms: _346  and  _347
REMARK  149  A    between atoms: _347  and  _348
REMARK  150  A    between atoms: _351  and  _353
REMARK  151  A    between atoms: _353  and  _354
REMARK  152  A    between atoms: _353  and  _356
REMARK  153  A    between atoms: _356  and  _357
REMARK  154  A    between atoms: _360  and  _362
REMARK  155  A    between atoms: _362  and  _363
REMARK  156  A    between atoms: _362  and  _365
REMARK  157  A    between atoms: _365  and  _366
REMARK  158  A    between atoms: _369  and  _371
REMARK  159  A    between atoms: _371  and  _372
REMARK  160  A    between atoms: _371  and  _374
REMARK  161  A    between atoms: _374  and  _375
REMARK  162  A    between atoms: _380  and  _382
REMARK  163  A    between atoms: _382  and  _383
REMARK  164  A    between atoms: _382  and  _385
REMARK  165  A    between atoms: _385  and  _386
REMARK  166  A    between atoms: _386  and  _387
REMARK  167  A    between atoms: _387  and  _388
REMARK  168  A    between atoms: _388  and  _389
REMARK  169  A    between atoms: _394  and  _395
REMARK  170  A    between atoms: _400  and  _402
REMARK  171  A    between atoms: _402  and  _403
REMARK  172  A    between atoms: _402  and  _405
REMARK  173  A    between atoms: _405  and  _406
REMARK  174  A    between atoms: _406  and  _407
REMARK  175  A    between atoms: _410  and  _412
REMARK  176  A    between atoms: _412  and  _413
REMARK  177  A    between atoms: _412  and  _415
REMARK  178  A    between atoms: _415  and  _416
REMARK  179  A    between atoms: _421  and  _423
REMARK  180  A    between atoms: _423  and  _424
REMARK  181  A    between atoms: _423  and  _426
REMARK  182  A    between atoms: _426  and  _427
REMARK  183  A    between atoms: _430  and  _432
REMARK  184  A    between atoms: _432  and  _433
REMARK  185  A    between atoms: _432  and  _435
REMARK  186  A    between atoms: _435  and  _436
REMARK  187  A    between atoms: _439  and  _441
REMARK  188  A    between atoms: _441  and  _442
REMARK  189  A    between atoms: _441  and  _444
REMARK  190  A    between atoms: _444  and  _445
REMARK  191  A    between atoms: _448  and  _450
REMARK  192  A    between atoms: _450  and  _451
REMARK  193  A    between atoms: _450  and  _453
REMARK  194  A    between atoms: _453  and  _454
REMARK  195  A    between atoms: _454  and  _455
REMARK  196  A    between atoms: _455  and  _456
REMARK  197  A    between atoms: _465  and  _467
REMARK  198  A    between atoms: _467  and  _468
REMARK  199  A    between atoms: _467  and  _470
REMARK  200  A    between atoms: _470  and  _471
REMARK  201  A    between atoms: _474  and  _476
REMARK  202  A    between atoms: _476  and  _477
REMARK  203  A    between atoms: _476  and  _479
REMARK  204  A    between atoms: _479  and  _480
REMARK  205  A    between atoms: _483  and  _485
REMARK  206  A    between atoms: _485  and  _486
REMARK  207  A    between atoms: _485  and  _488
REMARK  208  A    between atoms: _488  and  _489
REMARK  209  A    between atoms: _492  and  _494
REMARK  210  A    between atoms: _494  and  _495
REMARK  211  A    between atoms: _494  and  _497
REMARK  212  A    between atoms: _497  and  _498
REMARK  213  A    between atoms: _504  and  _506
REMARK  214  A    between atoms: _506  and  _507
REMARK  215  A    between atoms: _509  and  _511
REMARK  216  A    between atoms: _511  and  _512
REMARK  217  A    between atoms: _511  and  _514
REMARK  218  A    between atoms: _514  and  _515
REMARK  219  A    between atoms: _518  and  _520
REMARK  220  A    between atoms: _520  and  _521
REMARK  221  A    between atoms: _520  and  _523
REMARK  222  A    between atoms: _523  and  _524
REMARK  223  A    between atoms: _530  and  _532
REMARK  224  A    between atoms: _532  and  _533
REMARK  225  A    between atoms: _532  and  _535
REMARK  226  A    between atoms: _535  and  _536
REMARK  227  A    between atoms: _536  and  _537
REMARK  228  A    between atoms: _537  and  _538
REMARK  229  A    between atoms: _538  and  _539
REMARK  230  A    between atoms: _543  and  _545
REMARK  231  A    between atoms: _545  and  _546
REMARK  232  A    between atoms: _545  and  _548
REMARK  233  A    between atoms: _548  and  _549
REMARK  234  A    between atoms: _549  and  _550
REMARK                            x       y       z     vdW  Elec       q    Type
REMARK                         _______ _______ _______ _____ _____    ______ ____
ROOT
ATOM      1  CA  LEU A   1       5.559   9.544  64.829  0.00  0.00    +0.133 C 
ENDROOT
BRANCH   1   2
ATOM      2  N   LEU A   1       4.169   9.623  65.345  0.00  0.00    -0.239 NA
ATOM      3  H   LEU A   1       3.842  10.509  65.781  0.00  0.00    +0.142 HD
ENDBRANCH   1   2
BRANCH   1   4
ATOM      4  C   LEU A   1       6.331   8.351  65.391  0.00  0.00    +0.224 C 
ATOM      5  O   LEU A   1       7.086   7.685  64.664  0.00  0.00    -0.287 OA
ENDBRANCH   1   4
BRANCH   1   6
ATOM      6  CB  LEU A   1       6.336  10.838  65.086  0.00  0.00    +0.025 C 
BRANCH   6   7
ATOM      7  CG  LEU A   1       5.910  12.005  64.184  0.00  0.00    +0.002 C 
ATOM      8  CD2 LEU A   1       6.511  13.303  64.677  0.00  0.00    +0.000 C 
ATOM      9  CD1 LEU A   1       6.278  11.732  62.738  0.00  0.00    +0.000 C 
ENDBRANCH   6   7
ENDBRANCH   1   6
TORSDOF 4
REMARK  Name = ../refined-set-2016/3t3u/3t3u_pocket.pdb
REMARK  234 active torsions:
REMARK  status: ('A' for Active; 'I' for Inactive)
REMARK    1  A    between atoms: _1  and  _3
REMARK    2  A    between atoms: _3  and  _4
REMARK    3  A    between atoms: _3  and  _6
REMARK    4  A    between atoms: _6  and  _7
REMARK    5  A    between atoms: _7  and  _8
REMARK    6  A    between atoms: _8  and  _9
REMARK    7  A    between atoms: _18  and  _20
REMARK    8  A    between atoms: _20  and  _21
REMARK    9  A    between atoms: _20  and  _23
REMARK   10  A    between atoms: _26  and  _28
REMARK   11  A    between atoms: _28  and  _29
REMARK   12  A    between atoms: _28  and  _31
REMARK   13  A    between atoms: _31  and  _32
REMARK   14  A    between atoms: _35  and  _37
REMARK   15  A    between atoms: _37  and  _38
REMARK   16  A    between atoms: _40  and  _42
REMARK   17  A    between atoms: _42  and  _43
REMARK   18  A    between atoms: _42  and  _45
REMARK   19  A    between atoms: _45  and  _46
REMARK   20  A    between atoms: _46  and  _47
REMARK   21  A    between atoms: _47  and  _48
REMARK   22  A    between atoms: _48  and  _49
REMARK   23  A    between atoms: _53  and  _55
REMARK   24  A    between atoms: _55  and  _56
REMARK   25  A    between atoms: _58  and  _60
REMARK   26  A    between atoms: _60  and  _61
REMARK   27  A    between atoms: _60  and  _63
REMARK   28  A    between atoms: _63  and  _64
REMARK   29  A    between atoms: _66  and  _68
REMARK   30  A    between atoms: _68  and  _69
REMARK   31  A    between atoms: _68  and  _71
REMARK   32  A    between atoms: _71  and  _72
REMARK   33  A    between atoms: _78  and  _80
REMARK   34  A    between atoms: _80  and  _81
REMARK   35  A    between atoms: _83  and  _85
REMARK   36  A    between atoms: _85  and  _86
REMARK   37  A    between atoms: _85  and  _88
REMARK   38  A    between atoms: _88  and  _89
REMARK   39  A    between atoms: _89  and  _90
REMARK   40  A    between atoms: _93  and  _95
REMARK   41  A    between atoms: _95  and  _96
REMARK   42  A    between atoms: _95  and  _98
REMARK   43  A    between atoms: _101  and  _103
REMARK   44  A    between atoms: _103  and  _104
REMARK   45  A    between atoms: _103  and  _106
REMARK   46  A    between atoms: _106  and  _107
REMARK   47  A    between atoms: _110  and  _112
REMARK   48  A    between atoms: _112  and  _113
REMARK   49  A    between atoms: _112  and  _115
REMARK   50  A    between atoms: _115  and  _116
REMARK   51  A    between atoms: _119  and  _121
REMARK   52  A    between atoms: _121  and  _122
REMARK   53  A    between atoms: _121  and  _124
REMARK   54  A    between atoms: _126  and  _128
REMARK   55  A    between atoms: _128  and  _129
REMARK   56  A    between atoms: _132  and  _134
REMARK   57  A    between atoms: _134  and  _135
REMARK   58  A    between atoms: _134  and  _137
REMARK   59  A    between atoms: _140  and  _142
REMARK   60  A    between atoms: _142  and  _143
REMARK   61  A    between atoms: _142  and  _145
REMARK   62  A    between atoms: _145  and  _146
REMARK   63  A    between atoms: _146  and  _147
REMARK   64  A    between atoms: _147  and  _148
REMARK   65  A    between atoms: _148  and  _149
REMARK   66  A    between atoms: _153  and  _155
REMARK   67  A    between atoms: _155  and  _156
REMARK   68  A    between atoms: _155  and  _158
REMARK   69  A    between atoms: _161  and  _163
REMARK   70  A    between atoms: _163  and  _164
REMARK   71  A    between atoms: _163  and  _166
REMARK   72  A    between atoms: _166  and  _167
REMARK   73  A    between atoms: _170  and  _172
REMARK   74  A    between atoms: _172  and  _173
REMARK   75  A    between atoms: _172  and  _175
REMARK   76  A    between atoms: _178  and  _180
REMARK   77  A    between atoms: _180  and  _181
REMARK   78  A    between atoms: _180  and  _183
REMARK   79  A    between atoms: _183  and  _184
REMARK   80  A    between atoms: _187  and  _189
REMARK   81  A    between atoms: _189  and  _190
REMARK   82  A    between atoms: _189  and  _192
REMARK   83  A    between atoms: _192  and  _193
REMARK   84  A    between atoms: _193  and  _194
REMARK   85  A    between atoms: _196  and  _198
REMARK   86  A    between atoms: _198  and  _199
REMARK   87  A    between atoms: _198  and  _201
REMARK   88  A    between atoms: _201  and  _202
REMARK   89  A    between atoms: _202  and  _203
REMARK   90  A    between atoms: _203  and  _204
REMARK   91  A    between atoms: _204  and  _205
REMARK   92  A    between atoms: _209  and  _211
REMARK   93  A    between atoms: _211  and  _212
REMARK   94  A    between atoms: _211  and  _214
REMARK   95  A    between atoms: _214  and  _215
REMARK   96  A    between atoms: _218  and  _220
REMARK   97  A    between atoms: _220  and  _221
REMARK   98  A    between atoms: _220  and  _223
REMARK   99  A    between atoms: _223  and  _224
REMARK  100  A    between atoms: _229  and  _230
REMARK  101  A    between atoms: _232  and  _234
REMARK  102  A    between atoms: _234  and  _235
REMARK  103  A    between atoms: _234  and  _237
REMARK  104  A    between atoms: _237  and  _238
REMARK  105  A    between atoms: _238  and  _239
REMARK  106  A    between atoms: _242  and  _244
REMARK  107  A    between atoms: _244  and  _245
REMARK  108  A    between atoms: _244  and  _247
REMARK  109  A    between atoms: _247  and  _248
REMARK  110  A    between atoms: _254  and  _256
REMARK  111  A    between atoms: _256  and  _257
REMARK  112  A    between atoms: _256  and  _259
REMARK  113  A    between atoms: _259  and  _260
REMARK  114  A    between atoms: _265  and  _266
REMARK  115  A    between atoms: _268  and  _270
REMARK  116  A    between atoms: _270  and  _271
REMARK  117  A    between atoms: _270  and  _273
REMARK  118  A    between atoms: _273  and  _274
REMARK  119  A    between atoms: _277  and  _279
REMARK  120  A    between atoms: _279  and  _280
REMARK  121  A    between atoms: _279  and  _282
REMARK  122  A    between atoms: _285  and  _287
REMARK  123  A    between atoms: _287  and  _288
REMARK  124  A    between atoms: _290  and  _292
REMARK  125  A    between atoms: _292  and  _293
REMARK  126  A    between atoms: _292  and  _295
REMARK  127  A    between atoms: _295  and  _296
REMARK  128  A    between atoms: _296  and  _297
REMARK  129  A    between atoms: _300  and  _302
REMARK  130  A    between atoms: _302  and  _303
REMARK  131  A    between atoms: _302  and  _305
REMARK  132  A    between atoms: _308  and  _310
REMARK  133  A    between atoms: _310  and  _311
REMARK  134  A    between atoms: _310  and  _313
REMARK  135  A    between atoms: _313  and  _314
REMARK  136  A    between atoms: _319  and  _320
REMARK  137  A    between atoms: _322  and  _324
REMARK  138  A    between atoms: _324  and  _325
REMARK  139  A    between atoms: _324  and  _327
REMARK  140  A    between atoms: _327  and  _328
REMARK  141  A    between atoms: _331  and  _333
REMARK  142  A    between atoms: _333  and  _334
REMARK  143  A    between atoms: _336  and  _338
REMARK  144  A    between atoms: _338  and  _339
REMARK  145  A    between atoms: _341  and  _343
REMARK  146  A    between atoms: _343  and  _344
REMARK  147  A    between atoms: _343  and  _346
REMARK  148  A    between atoms: _346  and  _347
REMARK  149  A    between atoms: _347  and  _348
REMARK  150  A    between atoms: _351  and  _353
REMARK  151  A    between atoms: _353  and  _354
REMARK  152  A    between atoms: _353  and  _356
REMARK  153  A    between atoms: _356  and  _357
REMARK  154  A    between atoms: _360  and  _362
REMARK  155  A    between atoms: _362  and  _363
REMARK  156  A    between atoms: _362  and  _365
REMARK  157  A    between atoms: _365  and  _366
REMARK  158  A    between atoms: _369  and  _371
REMARK  159  A    between atoms: _371  and  _372
REMARK  160  A    between atoms: _371  and  _374
REMARK  161  A    between atoms: _374  and  _375
REMARK  162  A    between atoms: _380  and  _382
REMARK  163  A    between atoms: _382  and  _383
REMARK  164  A    between atoms: _382  and  _385
REMARK  165  A    between atoms: _385  and  _386
REMARK  166  A    between atoms: _386  and  _387
REMARK  167  A    between atoms: _387  and  _388
REMARK  168  A    between atoms: _388  and  _389
REMARK  169  A    between atoms: _394  and  _395
REMARK  170  A    between atoms: _400  and  _402
REMARK  171  A    between atoms: _402  and  _403
REMARK  172  A    between atoms: _402  and  _405
REMARK  173  A    between atoms: _405  and  _406
REMARK  174  A    between atoms: _406  and  _407
REMARK  175  A    between atoms: _410  and  _412
REMARK  176  A    between atoms: _412  and  _413
REMARK  177  A    between atoms: _412  and  _415
REMARK  178  A    between atoms: _415  and  _416
REMARK  179  A    between atoms: _421  and  _423
REMARK  180  A    between atoms: _423  and  _424
REMARK  181  A    between atoms: _423  and  _426
REMARK  182  A    between atoms: _426  and  _427
REMARK  183  A    between atoms: _430  and  _432
REMARK  184  A    between atoms: _432  and  _433
REMARK  185  A    between atoms: _432  and  _435
REMARK  186  A    between atoms: _435  and  _436
REMARK  187  A    between atoms: _439  and  _441
REMARK  188  A    between atoms: _441  and  _442
REMARK  189  A    between atoms: _441  and  _444
REMARK  190  A    between atoms: _444  and  _445
REMARK  191  A    between atoms: _448  and  _450
REMARK  192  A    between atoms: _450  and  _451
REMARK  193  A    between atoms: _450  and  _453
REMARK  194  A    between atoms: _453  and  _454
REMARK  195  A    between atoms: _454  and  _455
REMARK  196  A    between atoms: _455  and  _456
REMARK  197  A    between atoms: _465  and  _467
REMARK  198  A    between atoms: _467  and  _468
REMARK  199  A    between atoms: _467  and  _470
REMARK  200  A    between atoms: _470  and  _471
REMARK  201  A    between atoms: _474  and  _476
REMARK  202  A    between atoms: _476  and  _477
REMARK  203  A    between atoms: _476  and  _479
REMARK  204  A    between atoms: _479  and  _480
REMARK  205  A    between atoms: _483  and  _485
REMARK  206  A    between atoms: _485  and  _486
REMARK  207  A    between atoms: _485  and  _488
REMARK  208  A    between atoms: _488  and  _489
REMARK  209  A    between atoms: _492  and  _494
REMARK  210  A    between atoms: _494  and  _495
REMARK  211  A    between atoms: _494  and  _497
REMARK  212  A    between atoms: _497  and  _498
REMARK  213  A    between atoms: _504  and  _506
REMARK  214  A    between atoms: _506  and  _507
REMARK  215  A    between atoms: _509  and  _511
REMARK  216  A    between atoms: _511  and  _512
REMARK  217  A    between atoms: _511  and  _514
REMARK  218  A    between atoms: _514  and  _515
REMARK  219  A    between atoms: _518  and  _520
REMARK  220  A    between atoms: _520  and  _521
REMARK  221  A    between atoms: _520  and  _523
REMARK  222  A    between atoms: _523  and  _524
REMARK  223  A    between atoms: _530  and  _532
REMARK  224  A    between atoms: _532  and  _533
REMARK  225  A    between atoms: _532  and  _535
REMARK  226  A    between atoms: _535  and  _536
REMARK  227  A    between atoms: _536  and  _537
REMARK  228  A    between atoms: _537  and  _538
REMARK  229  A    between atoms: _538  and  _539
REMARK  230  A    between atoms: _543  and  _545
REMARK  231  A    between atoms: _545  and  _546
REMARK  232  A    between atoms: _545  and  _548
REMARK  233  A    between atoms: _548  and  _549
REMARK  234  A    between atoms: _549  and  _550
REMARK                            x       y       z     vdW  Elec       q    Type
REMARK                         _______ _______ _______ _____ _____    ______ ____
ROOT
ATOM      1  CA  TYR A   4      11.971   6.908  69.912  0.00  0.00    +0.153 C 
ENDROOT
BRANCH   1   3
ATOM      2  C   LEU A   3      11.391   7.780  67.713  0.00  0.00    +0.241 C 
ATOM      3  N   TYR A   4      12.073   7.892  68.839  0.00  0.00    -0.297 N 
ATOM      4  H   TYR A   4      12.704   8.709  68.965  0.00  0.00    +0.150 HD
ATOM      5  O   LEU A   3      10.526   6.916  67.525  0.00  0.00    -0.273 OA
BRANCH   2   6
ATOM      6  CA  LEU A   3      11.698   8.829  66.660  0.00  0.00    +0.149 C 
BRANCH   6   9
ATOM      7  C   LYS A   2      13.247   7.920  64.976  0.00  0.00    +0.241 C 
ATOM      8  O   LYS A   2      14.260   8.272  65.577  0.00  0.00    -0.273 OA
ATOM      9  N   LEU A   3      12.008   8.190  65.390  0.00  0.00    -0.297 N 
ATOM     10  H   LEU A   3      11.217   7.928  64.768  0.00  0.00    +0.150 HD
BRANCH   7  11
ATOM     11  CA  LYS A   2      13.335   7.144  63.664  0.00  0.00    +0.149 C 
BRANCH  11  13
ATOM     12  C   MET A   1      13.644   8.828  61.927  0.00  0.00    +0.238 C 
ATOM     13  N   LYS A   2      14.147   7.856  62.671  0.00  0.00    -0.297 N 
ATOM     14  H   LYS A   2      15.145   7.590  62.548  0.00  0.00    +0.150 HD
ATOM     15  O   MET A   1      12.474   9.217  62.016  0.00  0.00    -0.274 OA
BRANCH  12  16
ATOM     16  CA  MET A   1      14.624   9.461  60.954  0.00  0.00    +0.146 C 
BRANCH  16  17
ATOM     17  N   MET A   1      14.050   9.532  59.614  0.00  0.00    -0.238 NA
ATOM     18  H   MET A   1      14.049  10.441  59.110  0.00  0.00    +0.142 HD
ENDBRANCH  16  17
BRANCH  16  19
ATOM     19  CB  MET A   1      15.023  10.838  61.487  0.00  0.00    +0.038 C 
BRANCH  19  20
ATOM     20  CG  MET A   1      15.754  10.785  62.836  0.00  0.00    +0.060 C 
BRANCH  20  21
ATOM     21  SD  MET A   1      15.376  12.133  63.965  0.00  0.00    -0.139 S 
ATOM     22  CE  MET A   1      13.695  11.701  64.471  0.00  0.00    +0.069 C 
ENDBRANCH  20  21
ENDBRANCH  19  20
ENDBRANCH  16  19
ENDBRANCH  12  16
ENDBRANCH  11  13
BRANCH  11  23
ATOM     23  CB  LYS A   2      13.876   5.733  63.898  0.00  0.00    +0.029 C 
BRANCH  23  24
ATOM     24  CG  LYS A   2      13.159   4.929  64.985  0.00  0.00    +0.000 C 
BRANCH  24  25
ATOM     25  CD  LYS A   2      11.777   4.488  64.530  0.00  0.00    -0.024 C 
BRANCH  25  26
ATOM     26  CE  LYS A   2      10.895   4.052  65.712  0.00  0.00    -0.086 C 
BRANCH  26  27
ATOM     27  NZ  LYS A   2       9.475   4.522  65.554  0.00  0.00    +0.380 N 
ATOM     28  HZ1 LYS A   2       8.914   4.207  66.371  0.00  0.00    -0.089 HD
ATOM     29  HZ2 LYS A   2       9.459   5.560  65.500  0.00  0.00    -0.089 HD
ATOM     30  HZ3 LYS A   2       9.074   4.122  64.682  0.00  0.00    -0.089 HD
ENDBRANCH  26  27
ENDBRANCH  25  26
ENDBRANCH  24  25
ENDBRANCH  23  24
ENDBRANCH  11  23
ENDBRANCH   7  11
ENDBRANCH   6   9
BRANCH   6  31
ATOM     31  CB  LEU A   3      10.484   9.763  66.532  0.00  0.00    +0.029 C 
BRANCH  31  32
ATOM     32  CG  LEU A   3      10.099  10.581  67.778  0.00  0.00    +0.002 C 
ATOM     33  CD2 LEU A   3      11.222  11.564  68.167  0.00  0.00    +0.000 C 
ATOM     34  CD1 LEU A   3       8.765  11.336  67.573  0.00  0.00    +0.000 C 
ENDBRANCH  31  32
ENDBRANCH   6  31
ENDBRANCH   2   6
ENDBRANCH   1   3
BRANCH   1  35
ATOM     35  C   TYR A   4      11.100   7.393  71.041  0.00  0.00    +0.241 C 
ATOM     36  O   TYR A   4      10.236   6.668  71.522  0.00  0.00    -0.273 OA
ATOM     37  N   GLU A   5      11.352   8.618  71.488  0.00  0.00    -0.297 N 
ATOM     38  H   GLU A   5      12.001   9.231  70.955  0.00  0.00    +0.150 HD
BRANCH  37  39
ATOM     39  CA  GLU A   5      10.737   9.122  72.712  0.00  0.00    +0.149 C 
BRANCH  39  40
ATOM     40  C   GLU A   5      10.592  10.620  72.744  0.00  0.00    +0.241 C 
ATOM     41  N   PHE A   6       9.775  11.059  73.689  0.00  0.00    -0.298 N 
ATOM     42  H   PHE A   6       9.354  10.372  74.347  0.00  0.00    +0.150 HD
ATOM     43  O   GLU A   5      11.241  11.353  71.992  0.00  0.00    -0.273 OA
BRANCH  41  44
ATOM     44  CA  PHE A   6       9.445  12.466  73.840  0.00  0.00    +0.141 C 
BRANCH  44  45
ATOM     45  C   PHE A   6       9.356  12.838  75.313  0.00  0.00    +0.227 C 
ATOM     46  O   PHE A   6       8.744  12.132  76.095  0.00  0.00    -0.286 OA
ENDBRANCH  44  45
BRANCH  44  47
ATOM     47  CB  PHE A   6       8.117  12.755  73.133  0.00  0.00    +0.054 C 
BRANCH  47  48
ATOM     48  CG  PHE A   6       7.566  14.115  73.399  0.00  0.00    -0.020 A 
ATOM     49  CD2 PHE A   6       6.409  14.271  74.141  0.00  0.00    -0.004 A 
ATOM     50  CE2 PHE A   6       5.889  15.529  74.380  0.00  0.00    -0.000 A 
ATOM     51  CZ  PHE A   6       6.522  16.653  73.862  0.00  0.00    -0.000 A 
ATOM     52  CE1 PHE A   6       7.676  16.509  73.119  0.00  0.00    -0.000 A 
ATOM     53  CD1 PHE A   6       8.193  15.244  72.892  0.00  0.00    -0.004 A 
ENDBRANCH  47  48
ENDBRANCH  44  47
ENDBRANCH  41  44
ENDBRANCH  39  40
BRANCH  39  54
ATOM     54  CB  GLU A   5      11.570   8.717  73.933  0.00  0.00    +0.041 C 
BRANCH  54  55
ATOM     55  CG  GLU A   5      11.550   7.256  74.236  0.00  0.00    +0.116 C 
BRANCH  55  56
ATOM     56  CD  GLU A   5      12.029   6.982  75.633  0.00  0.00    +0.365 C 
ATOM     57  OE2 GLU A   5      11.190   6.621  76.473  0.00  0.00    -0.246 OA
ATOM     58  OE1 GLU A   5      13.242   7.156  75.895  0.00  0.00    -0.246 OA
ENDBRANCH  55  56
ENDBRANCH  54  55
ENDBRANCH  39  54
ENDBRANCH  37  39
ENDBRANCH   1  35
BRANCH   1  59
ATOM     59  CB  TYR A   4      13.356   6.583  70.495  0.00  0.00    +0.055 C 
BRANCH  59  60
ATOM     60  CG  TYR A   4      14.264   5.826  69.547  0.00  0.00    -0.020 A 
ATOM     61  CD2 TYR A   4      15.543   6.276  69.278  0.00  0.00    -0.001 A 
ATOM     62  CE2 TYR A   4      16.376   5.585  68.423  0.00  0.00    +0.036 A 
ATOM     63  CZ  TYR A   4      15.931   4.437  67.818  0.00  0.00    +0.134 A 
ATOM     64  CE1 TYR A   4      14.662   3.956  68.061  0.00  0.00    +0.036 A 
ATOM     65  CD1 TYR A   4      13.836   4.650  68.928  0.00  0.00    -0.001 A 
BRANCH  63  66
ATOM     66  OH  TYR A   4      16.770   3.773  66.969  0.00  0.00    -0.506 OA
ATOM     67  HH  TYR A   4      16.311   2.971  66.614  0.00  0.00    +0.292 HD
ENDBRANCH  63  66
ENDBRANCH  59  60
ENDBRANCH   1  59
TORSDOF 30
REMARK  Name = ../refined-set-2016/3t3u/3t3u_pocket.pdb
REMARK  234 active torsions:
REMARK  status: ('A' for Active; 'I' for Inactive)
REMARK    1  A    between atoms: _1  and  _3
REMARK    2  A    between atoms: _3  and  _4
REMARK    3  A    between atoms: _3  and  _6
REMARK    4  A    between atoms: _6  and  _7
REMARK    5  A    between atoms: _7  and  _8
REMARK    6  A    between atoms: _8  and  _9
REMARK    7  A    between atoms: _18  and  _20
REMARK    8  A    between atoms: _20  and  _21
REMARK    9  A    between atoms: _20  and  _23
REMARK   10  A    between atoms: _26  and  _28
REMARK   11  A    between atoms: _28  and  _29
REMARK   12  A    between atoms: _28  and  _31
REMARK   13  A    between atoms: _31  and  _32
REMARK   14  A    between atoms: _35  and  _37
REMARK   15  A    between atoms: _37  and  _38
REMARK   16  A    between atoms: _40  and  _42
REMARK   17  A    between atoms: _42  and  _43
REMARK   18  A    between atoms: _42  and  _45
REMARK   19  A    between atoms: _45  and  _46
REMARK   20  A    between atoms: _46  and  _47
REMARK   21  A    between atoms: _47  and  _48
REMARK   22  A    between atoms: _48  and  _49
REMARK   23  A    between atoms: _53  and  _55
REMARK   24  A    between atoms: _55  and  _56
REMARK   25  A    between atoms: _58  and  _60
REMARK   26  A    between atoms: _60  and  _61
REMARK   27  A    between atoms: _60  and  _63
REMARK   28  A    between atoms: _63  and  _64
REMARK   29  A    between atoms: _66  and  _68
REMARK   30  A    between atoms: _68  and  _69
REMARK   31  A    between atoms: _68  and  _71
REMARK   32  A    between atoms: _71  and  _72
REMARK   33  A    between atoms: _78  and  _80
REMARK   34  A    between atoms: _80  and  _81
REMARK   35  A    between atoms: _83  and  _85
REMARK   36  A    between atoms: _85  and  _86
REMARK   37  A    between atoms: _85  and  _88
REMARK   38  A    between atoms: _88  and  _89
REMARK   39  A    between atoms: _89  and  _90
REMARK   40  A    between atoms: _93  and  _95
REMARK   41  A    between atoms: _95  and  _96
REMARK   42  A    between atoms: _95  and  _98
REMARK   43  A    between atoms: _101  and  _103
REMARK   44  A    between atoms: _103  and  _104
REMARK   45  A    between atoms: _103  and  _106
REMARK   46  A    between atoms: _106  and  _107
REMARK   47  A    between atoms: _110  and  _112
REMARK   48  A    between atoms: _112  and  _113
REMARK   49  A    between atoms: _112  and  _115
REMARK   50  A    between atoms: _115  and  _116
REMARK   51  A    between atoms: _119  and  _121
REMARK   52  A    between atoms: _121  and  _122
REMARK   53  A    between atoms: _121  and  _124
REMARK   54  A    between atoms: _126  and  _128
REMARK   55  A    between atoms: _128  and  _129
REMARK   56  A    between atoms: _132  and  _134
REMARK   57  A    between atoms: _134  and  _135
REMARK   58  A    between atoms: _134  and  _137
REMARK   59  A    between atoms: _140  and  _142
REMARK   60  A    between atoms: _142  and  _143
REMARK   61  A    between atoms: _142  and  _145
REMARK   62  A    between atoms: _145  and  _146
REMARK   63  A    between atoms: _146  and  _147
REMARK   64  A    between atoms: _147  and  _148
REMARK   65  A    between atoms: _148  and  _149
REMARK   66  A    between atoms: _153  and  _155
REMARK   67  A    between atoms: _155  and  _156
REMARK   68  A    between atoms: _155  and  _158
REMARK   69  A    between atoms: _161  and  _163
REMARK   70  A    between atoms: _163  and  _164
REMARK   71  A    between atoms: _163  and  _166
REMARK   72  A    between atoms: _166  and  _167
REMARK   73  A    between atoms: _170  and  _172
REMARK   74  A    between atoms: _172  and  _173
REMARK   75  A    between atoms: _172  and  _175
REMARK   76  A    between atoms: _178  and  _180
REMARK   77  A    between atoms: _180  and  _181
REMARK   78  A    between atoms: _180  and  _183
REMARK   79  A    between atoms: _183  and  _184
REMARK   80  A    between atoms: _187  and  _189
REMARK   81  A    between atoms: _189  and  _190
REMARK   82  A    between atoms: _189  and  _192
REMARK   83  A    between atoms: _192  and  _193
REMARK   84  A    between atoms: _193  and  _194
REMARK   85  A    between atoms: _196  and  _198
REMARK   86  A    between atoms: _198  and  _199
REMARK   87  A    between atoms: _198  and  _201
REMARK   88  A    between atoms: _201  and  _202
REMARK   89  A    between atoms: _202  and  _203
REMARK   90  A    between atoms: _203  and  _204
REMARK   91  A    between atoms: _204  and  _205
REMARK   92  A    between atoms: _209  and  _211
REMARK   93  A    between atoms: _211  and  _212
REMARK   94  A    between atoms: _211  and  _214
REMARK   95  A    between atoms: _214  and  _215
REMARK   96  A    between atoms: _218  and  _220
REMARK   97  A    between atoms: _220  and  _221
REMARK   98  A    between atoms: _220  and  _223
REMARK   99  A    between atoms: _223  and  _224
REMARK  100  A    between atoms: _229  and  _230
REMARK  101  A    between atoms: _232  and  _234
REMARK  102  A    between atoms: _234  and  _235
REMARK  103  A    between atoms: _234  and  _237
REMARK  104  A    between atoms: _237  and  _238
REMARK  105  A    between atoms: _238  and  _239
REMARK  106  A    between atoms: _242  and  _244
REMARK  107  A    between atoms: _244  and  _245
REMARK  108  A    between atoms: _244  and  _247
REMARK  109  A    between atoms: _247  and  _248
REMARK  110  A    between atoms: _254  and  _256
REMARK  111  A    between atoms: _256  and  _257
REMARK  112  A    between atoms: _256  and  _259
REMARK  113  A    between atoms: _259  and  _260
REMARK  114  A    between atoms: _265  and  _266
REMARK  115  A    between atoms: _268  and  _270
REMARK  116  A    between atoms: _270  and  _271
REMARK  117  A    between atoms: _270  and  _273
REMARK  118  A    between atoms: _273  and  _274
REMARK  119  A    between atoms: _277  and  _279
REMARK  120  A    between atoms: _279  and  _280
REMARK  121  A    between atoms: _279  and  _282
REMARK  122  A    between atoms: _285  and  _287
REMARK  123  A    between atoms: _287  and  _288
REMARK  124  A    between atoms: _290  and  _292
REMARK  125  A    between atoms: _292  and  _293
REMARK  126  A    between atoms: _292  and  _295
REMARK  127  A    between atoms: _295  and  _296
REMARK  128  A    between atoms: _296  and  _297
REMARK  129  A    between atoms: _300  and  _302
REMARK  130  A    between atoms: _302  and  _303
REMARK  131  A    between atoms: _302  and  _305
REMARK  132  A    between atoms: _308  and  _310
REMARK  133  A    between atoms: _310  and  _311
REMARK  134  A    between atoms: _310  and  _313
REMARK  135  A    between atoms: _313  and  _314
REMARK  136  A    between atoms: _319  and  _320
REMARK  137  A    between atoms: _322  and  _324
REMARK  138  A    between atoms: _324  and  _325
REMARK  139  A    between atoms: _324  and  _327
REMARK  140  A    between atoms: _327  and  _328
REMARK  141  A    between atoms: _331  and  _333
REMARK  142  A    between atoms: _333  and  _334
REMARK  143  A    between atoms: _336  and  _338
REMARK  144  A    between atoms: _338  and  _339
REMARK  145  A    between atoms: _341  and  _343
REMARK  146  A    between atoms: _343  and  _344
REMARK  147  A    between atoms: _343  and  _346
REMARK  148  A    between atoms: _346  and  _347
REMARK  149  A    between atoms: _347  and  _348
REMARK  150  A    between atoms: _351  and  _353
REMARK  151  A    between atoms: _353  and  _354
REMARK  152  A    between atoms: _353  and  _356
REMARK  153  A    between atoms: _356  and  _357
REMARK  154  A    between atoms: _360  and  _362
REMARK  155  A    between atoms: _362  and  _363
REMARK  156  A    between atoms: _362  and  _365
REMARK  157  A    between atoms: _365  and  _366
REMARK  158  A    between atoms: _369  and  _371
REMARK  159  A    between atoms: _371  and  _372
REMARK  160  A    between atoms: _371  and  _374
REMARK  161  A    between atoms: _374  and  _375
REMARK  162  A    between atoms: _380  and  _382
REMARK  163  A    between atoms: _382  and  _383
REMARK  164  A    between atoms: _382  and  _385
REMARK  165  A    between atoms: _385  and  _386
REMARK  166  A    between atoms: _386  and  _387
REMARK  167  A    between atoms: _387  and  _388
REMARK  168  A    between atoms: _388  and  _389
REMARK  169  A    between atoms: _394  and  _395
REMARK  170  A    between atoms: _400  and  _402
REMARK  171  A    between atoms: _402  and  _403
REMARK  172  A    between atoms: _402  and  _405
REMARK  173  A    between atoms: _405  and  _406
REMARK  174  A    between atoms: _406  and  _407
REMARK  175  A    between atoms: _410  and  _412
REMARK  176  A    between atoms: _412  and  _413
REMARK  177  A    between atoms: _412  and  _415
REMARK  178  A    between atoms: _415  and  _416
REMARK  179  A    between atoms: _421  and  _423
REMARK  180  A    between atoms: _423  and  _424
REMARK  181  A    between atoms: _423  and  _426
REMARK  182  A    between atoms: _426  and  _427
REMARK  183  A    between atoms: _430  and  _432
REMARK  184  A    between atoms: _432  and  _433
REMARK  185  A    between atoms: _432  and  _435
REMARK  186  A    between atoms: _435  and  _436
REMARK  187  A    between atoms: _439  and  _441
REMARK  188  A    between atoms: _441  and  _442
REMARK  189  A    between atoms: _441  and  _444
REMARK  190  A    between atoms: _444  and  _445
REMARK  191  A    between atoms: _448  and  _450
REMARK  192  A    between atoms: _450  and  _451
REMARK  193  A    between atoms: _450  and  _453
REMARK  194  A    between atoms: _453  and  _454
REMARK  195  A    between atoms: _454  and  _455
REMARK  196  A    between atoms: _455  and  _456
REMARK  197  A    between atoms: _465  and  _467
REMARK  198  A    between atoms: _467  and  _468
REMARK  199  A    between atoms: _467  and  _470
REMARK  200  A    between atoms: _470  and  _471
REMARK  201  A    between atoms: _474  and  _476
REMARK  202  A    between atoms: _476  and  _477
REMARK  203  A    between atoms: _476  and  _479
REMARK  204  A    between atoms: _479  and  _480
REMARK  205  A    between atoms: _483  and  _485
REMARK  206  A    between atoms: _485  and  _486
REMARK  207  A    between atoms: _485  and  _488
REMARK  208  A    between atoms: _488  and  _489
REMARK  209  A    between atoms: _492  and  _494
REMARK  210  A    between atoms: _494  and  _495
REMARK  211  A    between atoms: _494  and  _497
REMARK  212  A    between atoms: _497  and  _498
REMARK  213  A    between atoms: _504  and  _506
REMARK  214  A    between atoms: _506  and  _507
REMARK  215  A    between atoms: _509  and  _511
REMARK  216  A    between atoms: _511  and  _512
REMARK  217  A    between atoms: _511  and  _514
REMARK  218  A    between atoms: _514  and  _515
REMARK  219  A    between atoms: _518  and  _520
REMARK  220  A    between atoms: _520  and  _521
REMARK  221  A    between atoms: _520  and  _523
REMARK  222  A    between atoms: _523  and  _524
REMARK  223  A    between atoms: _530  and  _532
REMARK  224  A    between atoms: _532  and  _533
REMARK  225  A    between atoms: _532  and  _535
REMARK  226  A    between atoms: _535  and  _536
REMARK  227  A    between atoms: _536  and  _537
REMARK  228  A    between atoms: _537  and  _538
REMARK  229  A    between atoms: _538  and  _539
REMARK  230  A    between atoms: _543  and  _545
REMARK  231  A    between atoms: _545  and  _546
REMARK  232  A    between atoms: _545  and  _548
REMARK  233  A    between atoms: _548  and  _549
REMARK  234  A    between atoms: _549  and  _550
REMARK                            x       y       z     vdW  Elec       q    Type
REMARK                         _______ _______ _______ _____ _____    ______ ____
ROOT
ATOM      1  C   VAL A   6      22.163   8.588  64.206  0.00  0.00    +0.241 C 
ATOM      2  O   VAL A   6      22.314   7.387  64.069  0.00  0.00    -0.273 OA
ATOM      3  N   TYR A   7      22.425   9.471  63.257  0.00  0.00    -0.297 N 
ATOM      4  H   TYR A   7      22.158  10.463  63.417  0.00  0.00    +0.150 HD
ENDROOT
BRANCH   1   5
ATOM      5  CA  VAL A   6      21.627   9.170  65.497  0.00  0.00    +0.149 C 
BRANCH   5   7
ATOM      6  C   GLU A   5      19.235   8.665  65.587  0.00  0.00    +0.241 C 
ATOM      7  N   VAL A   6      20.477   8.401  65.978  0.00  0.00    -0.297 N 
ATOM      8  H   VAL A   6      20.638   7.622  66.648  0.00  0.00    +0.150 HD
ATOM      9  O   GLU A   5      18.949   9.585  64.830  0.00  0.00    -0.273 OA
BRANCH   6  10
ATOM     10  CA  GLU A   5      18.148   7.754  66.139  0.00  0.00    +0.149 C 
BRANCH  10  13
ATOM     11  C   GLY A   4      17.032   9.386  67.581  0.00  0.00    +0.243 C 
ATOM     12  O   GLY A   4      17.977   9.487  68.362  0.00  0.00    -0.273 OA
ATOM     13  N   GLU A   5      17.009   8.546  66.564  0.00  0.00    -0.297 N 
ATOM     14  H   GLU A   5      16.120   8.445  66.034  0.00  0.00    +0.150 HD
BRANCH  11  15
ATOM     15  CA  GLY A   4      15.754  10.204  67.742  0.00  0.00    +0.176 C 
BRANCH  15  18
ATOM     16  C   VAL A   3      14.670  10.695  69.891  0.00  0.00    +0.241 C 
ATOM     17  O   VAL A   3      13.745   9.883  69.715  0.00  0.00    -0.273 OA
ATOM     18  N   GLY A   4      15.637  10.927  69.003  0.00  0.00    -0.295 N 
ATOM     19  H   GLY A   4      16.343  11.660  69.220  0.00  0.00    +0.150 HD
BRANCH  16  20
ATOM     20  CA  VAL A   3      14.775  11.525  71.164  0.00  0.00    +0.149 C 
BRANCH  20  22
ATOM     21  C   LEU A   2      13.924  13.812  70.840  0.00  0.00    +0.241 C 
ATOM     22  N   VAL A   3      13.732  12.565  71.247  0.00  0.00    -0.297 N 
ATOM     23  H   VAL A   3      12.805  12.309  71.642  0.00  0.00    +0.150 HD
ATOM     24  O   LEU A   2      14.952  14.193  70.286  0.00  0.00    -0.273 OA
BRANCH  21  25
ATOM     25  CA  LEU A   2      12.761  14.764  71.058  0.00  0.00    +0.149 C 
BRANCH  25  28
ATOM     26  C   TYR A   1      12.650  15.699  73.299  0.00  0.00    +0.239 C 
ATOM     27  O   TYR A   1      11.863  14.831  73.683  0.00  0.00    -0.274 OA
ATOM     28  N   LEU A   2      13.114  15.761  72.061  0.00  0.00    -0.297 N 
ATOM     29  H   LEU A   2      13.748  16.542  71.797  0.00  0.00    +0.150 HD
BRANCH  26  30
ATOM     30  CA  TYR A   1      13.132  16.790  74.235  0.00  0.00    +0.149 C 
BRANCH  30  31
ATOM     31  N   TYR A   1      12.011  17.672  74.575  0.00  0.00    -0.238 NA
ATOM     32  H   TYR A   1      11.178  17.261  75.043  0.00  0.00    +0.142 HD
ENDBRANCH  30  31
BRANCH  30  33
ATOM     33  CB  TYR A   1      13.741  16.137  75.483  0.00  0.00    +0.053 C 
BRANCH  33  34
ATOM     34  CG  TYR A   1      14.092  17.104  76.590  0.00  0.00    -0.020 A 
ATOM     35  CD2 TYR A   1      13.131  17.538  77.497  0.00  0.00    -0.001 A 
ATOM     36  CE2 TYR A   1      13.460  18.425  78.529  0.00  0.00    +0.036 A 
ATOM     37  CZ  TYR A   1      14.767  18.878  78.652  0.00  0.00    +0.134 A 
ATOM     38  CE1 TYR A   1      15.730  18.451  77.757  0.00  0.00    +0.036 A 
ATOM     39  CD1 TYR A   1      15.391  17.569  76.741  0.00  0.00    -0.001 A 
BRANCH  37  40
ATOM     40  OH  TYR A   1      15.123  19.759  79.672  0.00  0.00    -0.506 OA
ATOM     41  HH  TYR A   1      14.939  19.338  80.549  0.00  0.00    +0.292 HD
ENDBRANCH  37  40
ENDBRANCH  33  34
ENDBRANCH  30  33
ENDBRANCH  26  30
ENDBRANCH  25  28
BRANCH  25  42
ATOM     42  CB  LEU A   2      12.387  15.425  69.724  0.00  0.00    +0.029 C 
BRANCH  42  43
ATOM     43  CG  LEU A   2      11.365  16.556  69.788  0.00  0.00    +0.002 C 
ATOM     44  CD2 LEU A   2      10.026  16.015  70.198  0.00  0.00    +0.000 C 
ATOM     45  CD1 LEU A   2      11.256  17.278  68.440  0.00  0.00    +0.000 C 
ENDBRANCH  42  43
ENDBRANCH  25  42
ENDBRANCH  21  25
ENDBRANCH  20  22
BRANCH  20  46
ATOM     46  CB  VAL A   3      14.755  10.588  72.377  0.00  0.00    +0.027 C 
ATOM     47  CG2 VAL A   3      14.851  11.394  73.670  0.00  0.00    +0.002 C 
ATOM     48  CG1 VAL A   3      15.905   9.555  72.294  0.00  0.00    +0.002 C 
ENDBRANCH  20  46
ENDBRANCH  16  20
ENDBRANCH  15  18
ENDBRANCH  11  15
ENDBRANCH  10  13
BRANCH  10  49
ATOM     49  CB  GLU A   5      17.721   6.762  65.047  0.00  0.00    +0.041 C 
BRANCH  49  50
ATOM     50  CG  GLU A   5      18.845   5.854  64.564  0.00  0.00    +0.116 C 
BRANCH  50  51
ATOM     51  CD  GLU A   5      18.368   4.627  63.817  0.00  0.00    +0.365 C 
ATOM     52  OE2 GLU A   5      19.055   3.600  63.924  0.00  0.00    -0.246 OA
ATOM     53  OE1 GLU A   5      17.350   4.672  63.094  0.00  0.00    -0.246 OA
ENDBRANCH  50  51
ENDBRANCH  49  50
ENDBRANCH  10  49
ENDBRANCH   6  10
ENDBRANCH   5   7
BRANCH   5  54
ATOM     54  CB  VAL A   6      22.782   9.264  66.517  0.00  0.00    +0.027 C 
ATOM     55  CG2 VAL A   6      23.368   7.899  66.839  0.00  0.00    +0.002 C 
ATOM     56  CG1 VAL A   6      23.866  10.195  65.986  0.00  0.00    +0.002 C 
ENDBRANCH   5  54
ENDBRANCH   1   5
BRANCH   3  57
ATOM     57  CA  TYR A   7      23.073   9.119  61.993  0.00  0.00    +0.153 C 
BRANCH  57  58
ATOM     58  C   TYR A   7      24.400   9.855  61.872  0.00  0.00    +0.241 C 
ATOM     59  O   TYR A   7      24.500  11.039  62.182  0.00  0.00    -0.273 OA
ATOM     60  N   THR A   8      25.416   9.146  61.413  0.00  0.00    -0.295 N 
ATOM     61  H   THR A   8      25.226   8.250  60.921  0.00  0.00    +0.150 HD
BRANCH  60  62
ATOM     62  CA  THR A   8      26.815   9.593  61.580  0.00  0.00    +0.176 C 
BRANCH  62  63
ATOM     63  C   THR A   8      27.521   9.953  60.270  0.00  0.00    +0.243 C 
ATOM     64  O   THR A   8      28.669  10.386  60.283  0.00  0.00    -0.273 OA
ATOM     65  N   GLY A   9      26.819   9.777  59.155  0.00  0.00    -0.295 N 
ATOM     66  H   GLY A   9      25.822   9.492  59.237  0.00  0.00    +0.150 HD
BRANCH  65  67
ATOM     67  CA  GLY A   9      27.384   9.966  57.816  0.00  0.00    +0.176 C 
BRANCH  67  68
ATOM     68  C   GLY A   9      27.321  11.390  57.275  0.00  0.00    +0.243 C 
ATOM     69  N   GLY A  10      26.841  12.308  58.113  0.00  0.00    -0.295 N 
ATOM     70  H   GLY A  10      26.534  12.006  59.060  0.00  0.00    +0.150 HD
ATOM     71  O   GLY A   9      27.700  11.648  56.124  0.00  0.00    -0.273 OA
BRANCH  69  72
ATOM     72  CA  GLY A  10      26.727  13.722  57.759  0.00  0.00    +0.176 C 
BRANCH  72  73
ATOM     73  C   GLY A  10      25.719  14.056  56.676  0.00  0.00    +0.243 C 
ATOM     74  O   GLY A  10      24.881  13.231  56.279  0.00  0.00    -0.273 OA
ATOM     75  N   GLU A  11      25.799  15.289  56.193  0.00  0.00    -0.297 N 
ATOM     76  H   GLU A  11      26.571  15.912  56.504  0.00  0.00    +0.150 HD
BRANCH  75  77
ATOM     77  CA  GLU A  11      24.818  15.784  55.230  0.00  0.00    +0.149 C 
BRANCH  77  78
ATOM     78  C   GLU A  11      25.131  15.268  53.828  0.00  0.00    +0.241 C 
ATOM     79  O   GLU A  11      26.290  15.195  53.424  0.00  0.00    -0.273 OA
ATOM     80  N   LEU A  12      24.089  14.932  53.079  0.00  0.00    -0.298 N 
ATOM     81  H   LEU A  12      23.130  15.089  53.448  0.00  0.00    +0.150 HD
BRANCH  80  82
ATOM     82  CA  LEU A  12      24.252  14.342  51.738  0.00  0.00    +0.137 C 
BRANCH  82  83
ATOM     83  C   LEU A  12      25.222  15.147  50.849  0.00  0.00    +0.227 C 
ATOM     84  O   LEU A  12      26.129  14.585  50.233  0.00  0.00    -0.286 OA
ENDBRANCH  82  83
BRANCH  82  85
ATOM     85  CB  LEU A  12      22.891  14.196  51.050  0.00  0.00    +0.028 C 
BRANCH  85  86
ATOM     86  CG  LEU A  12      22.852  13.890  49.550  0.00  0.00    +0.002 C 
ATOM     87  CD2 LEU A  12      23.343  12.467  49.240  0.00  0.00    +0.000 C 
ATOM     88  CD1 LEU A  12      21.435  14.127  49.027  0.00  0.00    +0.000 C 
ENDBRANCH  85  86
ENDBRANCH  82  85
ENDBRANCH  80  82
ENDBRANCH  77  78
BRANCH  77  89
ATOM     89  CB  GLU A  11      24.786  17.322  55.225  0.00  0.00    +0.041 C 
BRANCH  89  90
ATOM     90  CG  GLU A  11      24.307  17.962  56.515  0.00  0.00    +0.116 C 
BRANCH  90  91
ATOM     91  CD  GLU A  11      24.542  19.469  56.543  0.00  0.00    +0.365 C 
ATOM     92  OE2 GLU A  11      24.707  20.025  57.642  0.00  0.00    -0.246 OA
ATOM     93  OE1 GLU A  11      24.568  20.107  55.467  0.00  0.00    -0.246 OA
ENDBRANCH  90  91
ENDBRANCH  89  90
ENDBRANCH  77  89
ENDBRANCH  75  77
ENDBRANCH  72  73
ENDBRANCH  69  72
ENDBRANCH  67  68
ENDBRANCH  65  67
ENDBRANCH  62  63
BRANCH  62  94
ATOM     94  CB  THR A   8      27.644   8.500  62.264  0.00  0.00    +0.137 C 
ATOM     95  CG2 THR A   8      27.122   8.233  63.684  0.00  0.00    +0.034 C 
BRANCH  94  96
ATOM     96  OG1 THR A   8      27.565   7.298  61.484  0.00  0.00    -0.382 OA
ATOM     97  HG1 THR A   8      28.099   6.587  61.920  0.00  0.00    +0.210 HD
ENDBRANCH  94  96
ENDBRANCH  62  94
ENDBRANCH  60  62
ENDBRANCH  57  58
BRANCH  57  98
ATOM     98  CB  TYR A   7      22.142   9.416  60.816  0.00  0.00    +0.055 C 
BRANCH  98  99
ATOM     99  CG  TYR A   7      20.796   8.752  61.009  0.00  0.00    -0.020 A 
ATOM    100  CD2 TYR A   7      19.637   9.507  61.170  0.00  0.00    -0.001 A 
ATOM    101  CE2 TYR A   7      18.406   8.899  61.385  0.00  0.00    +0.036 A 
ATOM    102  CZ  TYR A   7      18.318   7.522  61.460  0.00  0.00    +0.134 A 
ATOM    103  CE1 TYR A   7      19.453   6.739  61.323  0.00  0.00    +0.036 A 
ATOM    104  CD1 TYR A   7      20.692   7.361  61.105  0.00  0.00    -0.001 A 
BRANCH 102 105
ATOM    105  OH  TYR A   7      17.083   6.959  61.676  0.00  0.00    -0.506 OA
ATOM    106  HH  TYR A   7      17.172   5.973  61.706  0.00  0.00    +0.292 HD
ENDBRANCH 102 105
ENDBRANCH  98  99
ENDBRANCH  57  98
ENDBRANCH   3  57
TORSDOF 44
REMARK  Name = ../refined-set-2016/3t3u/3t3u_pocket.pdb
REMARK  234 active torsions:
REMARK  status: ('A' for Active; 'I' for Inactive)
REMARK    1  A    between atoms: _1  and  _3
REMARK    2  A    between atoms: _3  and  _4
REMARK    3  A    between atoms: _3  and  _6
REMARK    4  A    between atoms: _6  and  _7
REMARK    5  A    between atoms: _7  and  _8
REMARK    6  A    between atoms: _8  and  _9
REMARK    7  A    between atoms: _18  and  _20
REMARK    8  A    between atoms: _20  and  _21
REMARK    9  A    between atoms: _20  and  _23
REMARK   10  A    between atoms: _26  and  _28
REMARK   11  A    between atoms: _28  and  _29
REMARK   12  A    between atoms: _28  and  _31
REMARK   13  A    between atoms: _31  and  _32
REMARK   14  A    between atoms: _35  and  _37
REMARK   15  A    between atoms: _37  and  _38
REMARK   16  A    between atoms: _40  and  _42
REMARK   17  A    between atoms: _42  and  _43
REMARK   18  A    between atoms: _42  and  _45
REMARK   19  A    between atoms: _45  and  _46
REMARK   20  A    between atoms: _46  and  _47
REMARK   21  A    between atoms: _47  and  _48
REMARK   22  A    between atoms: _48  and  _49
REMARK   23  A    between atoms: _53  and  _55
REMARK   24  A    between atoms: _55  and  _56
REMARK   25  A    between atoms: _58  and  _60
REMARK   26  A    between atoms: _60  and  _61
REMARK   27  A    between atoms: _60  and  _63
REMARK   28  A    between atoms: _63  and  _64
REMARK   29  A    between atoms: _66  and  _68
REMARK   30  A    between atoms: _68  and  _69
REMARK   31  A    between atoms: _68  and  _71
REMARK   32  A    between atoms: _71  and  _72
REMARK   33  A    between atoms: _78  and  _80
REMARK   34  A    between atoms: _80  and  _81
REMARK   35  A    between atoms: _83  and  _85
REMARK   36  A    between atoms: _85  and  _86
REMARK   37  A    between atoms: _85  and  _88
REMARK   38  A    between atoms: _88  and  _89
REMARK   39  A    between atoms: _89  and  _90
REMARK   40  A    between atoms: _93  and  _95
REMARK   41  A    between atoms: _95  and  _96
REMARK   42  A    between atoms: _95  and  _98
REMARK   43  A    between atoms: _101  and  _103
REMARK   44  A    between atoms: _103  and  _104
REMARK   45  A    between atoms: _103  and  _106
REMARK   46  A    between atoms: _106  and  _107
REMARK   47  A    between atoms: _110  and  _112
REMARK   48  A    between atoms: _112  and  _113
REMARK   49  A    between atoms: _112  and  _115
REMARK   50  A    between atoms: _115  and  _116
REMARK   51  A    between atoms: _119  and  _121
REMARK   52  A    between atoms: _121  and  _122
REMARK   53  A    between atoms: _121  and  _124
REMARK   54  A    between atoms: _126  and  _128
REMARK   55  A    between atoms: _128  and  _129
REMARK   56  A    between atoms: _132  and  _134
REMARK   57  A    between atoms: _134  and  _135
REMARK   58  A    between atoms: _134  and  _137
REMARK   59  A    between atoms: _140  and  _142
REMARK   60  A    between atoms: _142  and  _143
REMARK   61  A    between atoms: _142  and  _145
REMARK   62  A    between atoms: _145  and  _146
REMARK   63  A    between atoms: _146  and  _147
REMARK   64  A    between atoms: _147  and  _148
REMARK   65  A    between atoms: _148  and  _149
REMARK   66  A    between atoms: _153  and  _155
REMARK   67  A    between atoms: _155  and  _156
REMARK   68  A    between atoms: _155  and  _158
REMARK   69  A    between atoms: _161  and  _163
REMARK   70  A    between atoms: _163  and  _164
REMARK   71  A    between atoms: _163  and  _166
REMARK   72  A    between atoms: _166  and  _167
REMARK   73  A    between atoms: _170  and  _172
REMARK   74  A    between atoms: _172  and  _173
REMARK   75  A    between atoms: _172  and  _175
REMARK   76  A    between atoms: _178  and  _180
REMARK   77  A    between atoms: _180  and  _181
REMARK   78  A    between atoms: _180  and  _183
REMARK   79  A    between atoms: _183  and  _184
REMARK   80  A    between atoms: _187  and  _189
REMARK   81  A    between atoms: _189  and  _190
REMARK   82  A    between atoms: _189  and  _192
REMARK   83  A    between atoms: _192  and  _193
REMARK   84  A    between atoms: _193  and  _194
REMARK   85  A    between atoms: _196  and  _198
REMARK   86  A    between atoms: _198  and  _199
REMARK   87  A    between atoms: _198  and  _201
REMARK   88  A    between atoms: _201  and  _202
REMARK   89  A    between atoms: _202  and  _203
REMARK   90  A    between atoms: _203  and  _204
REMARK   91  A    between atoms: _204  and  _205
REMARK   92  A    between atoms: _209  and  _211
REMARK   93  A    between atoms: _211  and  _212
REMARK   94  A    between atoms: _211  and  _214
REMARK   95  A    between atoms: _214  and  _215
REMARK   96  A    between atoms: _218  and  _220
REMARK   97  A    between atoms: _220  and  _221
REMARK   98  A    between atoms: _220  and  _223
REMARK   99  A    between atoms: _223  and  _224
REMARK  100  A    between atoms: _229  and  _230
REMARK  101  A    between atoms: _232  and  _234
REMARK  102  A    between atoms: _234  and  _235
REMARK  103  A    between atoms: _234  and  _237
REMARK  104  A    between atoms: _237  and  _238
REMARK  105  A    between atoms: _238  and  _239
REMARK  106  A    between atoms: _242  and  _244
REMARK  107  A    between atoms: _244  and  _245
REMARK  108  A    between atoms: _244  and  _247
REMARK  109  A    between atoms: _247  and  _248
REMARK  110  A    between atoms: _254  and  _256
REMARK  111  A    between atoms: _256  and  _257
REMARK  112  A    between atoms: _256  and  _259
REMARK  113  A    between atoms: _259  and  _260
REMARK  114  A    between atoms: _265  and  _266
REMARK  115  A    between atoms: _268  and  _270
REMARK  116  A    between atoms: _270  and  _271
REMARK  117  A    between atoms: _270  and  _273
REMARK  118  A    between atoms: _273  and  _274
REMARK  119  A    between atoms: _277  and  _279
REMARK  120  A    between atoms: _279  and  _280
REMARK  121  A    between atoms: _279  and  _282
REMARK  122  A    between atoms: _285  and  _287
REMARK  123  A    between atoms: _287  and  _288
REMARK  124  A    between atoms: _290  and  _292
REMARK  125  A    between atoms: _292  and  _293
REMARK  126  A    between atoms: _292  and  _295
REMARK  127  A    between atoms: _295  and  _296
REMARK  128  A    between atoms: _296  and  _297
REMARK  129  A    between atoms: _300  and  _302
REMARK  130  A    between atoms: _302  and  _303
REMARK  131  A    between atoms: _302  and  _305
REMARK  132  A    between atoms: _308  and  _310
REMARK  133  A    between atoms: _310  and  _311
REMARK  134  A    between atoms: _310  and  _313
REMARK  135  A    between atoms: _313  and  _314
REMARK  136  A    between atoms: _319  and  _320
REMARK  137  A    between atoms: _322  and  _324
REMARK  138  A    between atoms: _324  and  _325
REMARK  139  A    between atoms: _324  and  _327
REMARK  140  A    between atoms: _327  and  _328
REMARK  141  A    between atoms: _331  and  _333
REMARK  142  A    between atoms: _333  and  _334
REMARK  143  A    between atoms: _336  and  _338
REMARK  144  A    between atoms: _338  and  _339
REMARK  145  A    between atoms: _341  and  _343
REMARK  146  A    between atoms: _343  and  _344
REMARK  147  A    between atoms: _343  and  _346
REMARK  148  A    between atoms: _346  and  _347
REMARK  149  A    between atoms: _347  and  _348
REMARK  150  A    between atoms: _351  and  _353
REMARK  151  A    between atoms: _353  and  _354
REMARK  152  A    between atoms: _353  and  _356
REMARK  153  A    between atoms: _356  and  _357
REMARK  154  A    between atoms: _360  and  _362
REMARK  155  A    between atoms: _362  and  _363
REMARK  156  A    between atoms: _362  and  _365
REMARK  157  A    between atoms: _365  and  _366
REMARK  158  A    between atoms: _369  and  _371
REMARK  159  A    between atoms: _371  and  _372
REMARK  160  A    between atoms: _371  and  _374
REMARK  161  A    between atoms: _374  and  _375
REMARK  162  A    between atoms: _380  and  _382
REMARK  163  A    between atoms: _382  and  _383
REMARK  164  A    between atoms: _382  and  _385
REMARK  165  A    between atoms: _385  and  _386
REMARK  166  A    between atoms: _386  and  _387
REMARK  167  A    between atoms: _387  and  _388
REMARK  168  A    between atoms: _388  and  _389
REMARK  169  A    between atoms: _394  and  _395
REMARK  170  A    between atoms: _400  and  _402
REMARK  171  A    between atoms: _402  and  _403
REMARK  172  A    between atoms: _402  and  _405
REMARK  173  A    between atoms: _405  and  _406
REMARK  174  A    between atoms: _406  and  _407
REMARK  175  A    between atoms: _410  and  _412
REMARK  176  A    between atoms: _412  and  _413
REMARK  177  A    between atoms: _412  and  _415
REMARK  178  A    between atoms: _415  and  _416
REMARK  179  A    between atoms: _421  and  _423
REMARK  180  A    between atoms: _423  and  _424
REMARK  181  A    between atoms: _423  and  _426
REMARK  182  A    between atoms: _426  and  _427
REMARK  183  A    between atoms: _430  and  _432
REMARK  184  A    between atoms: _432  and  _433
REMARK  185  A    between atoms: _432  and  _435
REMARK  186  A    between atoms: _435  and  _436
REMARK  187  A    between atoms: _439  and  _441
REMARK  188  A    between atoms: _441  and  _442
REMARK  189  A    between atoms: _441  and  _444
REMARK  190  A    between atoms: _444  and  _445
REMARK  191  A    between atoms: _448  and  _450
REMARK  192  A    between atoms: _450  and  _451
REMARK  193  A    between atoms: _450  and  _453
REMARK  194  A    between atoms: _453  and  _454
REMARK  195  A    between atoms: _454  and  _455
REMARK  196  A    between atoms: _455  and  _456
REMARK  197  A    between atoms: _465  and  _467
REMARK  198  A    between atoms: _467  and  _468
REMARK  199  A    between atoms: _467  and  _470
REMARK  200  A    between atoms: _470  and  _471
REMARK  201  A    between atoms: _474  and  _476
REMARK  202  A    between atoms: _476  and  _477
REMARK  203  A    between atoms: _476  and  _479
REMARK  204  A    between atoms: _479  and  _480
REMARK  205  A    between atoms: _483  and  _485
REMARK  206  A    between atoms: _485  and  _486
REMARK  207  A    between atoms: _485  and  _488
REMARK  208  A    between atoms: _488  and  _489
REMARK  209  A    between atoms: _492  and  _494
REMARK  210  A    between atoms: _494  and  _495
REMARK  211  A    between atoms: _494  and  _497
REMARK  212  A    between atoms: _497  and  _498
REMARK  213  A    between atoms: _504  and  _506
REMARK  214  A    between atoms: _506  and  _507
REMARK  215  A    between atoms: _509  and  _511
REMARK  216  A    between atoms: _511  and  _512
REMARK  217  A    between atoms: _511  and  _514
REMARK  218  A    between atoms: _514  and  _515
REMARK  219  A    between atoms: _518  and  _520
REMARK  220  A    between atoms: _520  and  _521
REMARK  221  A    between atoms: _520  and  _523
REMARK  222  A    between atoms: _523  and  _524
REMARK  223  A    between atoms: _530  and  _532
REMARK  224  A    between atoms: _532  and  _533
REMARK  225  A    between atoms: _532  and  _535
REMARK  226  A    between atoms: _535  and  _536
REMARK  227  A    between atoms: _536  and  _537
REMARK  228  A    between atoms: _537  and  _538
REMARK  229  A    between atoms: _538  and  _539
REMARK  230  A    between atoms: _543  and  _545
REMARK  231  A    between atoms: _545  and  _546
REMARK  232  A    between atoms: _545  and  _548
REMARK  233  A    between atoms: _548  and  _549
REMARK  234  A    between atoms: _549  and  _550
REMARK                            x       y       z     vdW  Elec       q    Type
REMARK                         _______ _______ _______ _____ _____    ______ ____
ROOT
ATOM      1  CA  ASP A   1      29.008  17.297  52.013  0.00  0.00    +0.144 C 
ENDROOT
BRANCH   1   2
ATOM      2  N   ASP A   1      27.615  17.277  51.528  0.00  0.00    -0.239 NA
ATOM      3  H   ASP A   1      26.843  17.185  52.218  0.00  0.00    +0.142 HD
ENDBRANCH   1   2
BRANCH   1   4
ATOM      4  C   ASP A   1      29.732  16.016  51.583  0.00  0.00    +0.225 C 
ATOM      5  O   ASP A   1      30.964  15.978  51.475  0.00  0.00    -0.287 OA
ENDBRANCH   1   4
BRANCH   1   6
ATOM      6  CB  ASP A   1      29.068  17.442  53.539  0.00  0.00    +0.139 C 
BRANCH   6   7
ATOM      7  CG  ASP A   1      28.731  18.852  54.019  0.00  0.00    +0.367 C 
ATOM      8  OD2 ASP A   1      28.223  18.984  55.147  0.00  0.00    -0.246 OA
ATOM      9  OD1 ASP A   1      28.976  19.835  53.302  0.00  0.00    -0.246 OA
ENDBRANCH   6   7
ENDBRANCH   1   6
TORSDOF 4
REMARK  Name = ../refined-set-2016/3t3u/3t3u_pocket.pdb
REMARK  234 active torsions:
REMARK  status: ('A' for Active; 'I' for Inactive)
REMARK    1  A    between atoms: _1  and  _3
REMARK    2  A    between atoms: _3  and  _4
REMARK    3  A    between atoms: _3  and  _6
REMARK    4  A    between atoms: _6  and  _7
REMARK    5  A    between atoms: _7  and  _8
REMARK    6  A    between atoms: _8  and  _9
REMARK    7  A    between atoms: _18  and  _20
REMARK    8  A    between atoms: _20  and  _21
REMARK    9  A    between atoms: _20  and  _23
REMARK   10  A    between atoms: _26  and  _28
REMARK   11  A    between atoms: _28  and  _29
REMARK   12  A    between atoms: _28  and  _31
REMARK   13  A    between atoms: _31  and  _32
REMARK   14  A    between atoms: _35  and  _37
REMARK   15  A    between atoms: _37  and  _38
REMARK   16  A    between atoms: _40  and  _42
REMARK   17  A    between atoms: _42  and  _43
REMARK   18  A    between atoms: _42  and  _45
REMARK   19  A    between atoms: _45  and  _46
REMARK   20  A    between atoms: _46  and  _47
REMARK   21  A    between atoms: _47  and  _48
REMARK   22  A    between atoms: _48  and  _49
REMARK   23  A    between atoms: _53  and  _55
REMARK   24  A    between atoms: _55  and  _56
REMARK   25  A    between atoms: _58  and  _60
REMARK   26  A    between atoms: _60  and  _61
REMARK   27  A    between atoms: _60  and  _63
REMARK   28  A    between atoms: _63  and  _64
REMARK   29  A    between atoms: _66  and  _68
REMARK   30  A    between atoms: _68  and  _69
REMARK   31  A    between atoms: _68  and  _71
REMARK   32  A    between atoms: _71  and  _72
REMARK   33  A    between atoms: _78  and  _80
REMARK   34  A    between atoms: _80  and  _81
REMARK   35  A    between atoms: _83  and  _85
REMARK   36  A    between atoms: _85  and  _86
REMARK   37  A    between atoms: _85  and  _88
REMARK   38  A    between atoms: _88  and  _89
REMARK   39  A    between atoms: _89  and  _90
REMARK   40  A    between atoms: _93  and  _95
REMARK   41  A    between atoms: _95  and  _96
REMARK   42  A    between atoms: _95  and  _98
REMARK   43  A    between atoms: _101  and  _103
REMARK   44  A    between atoms: _103  and  _104
REMARK   45  A    between atoms: _103  and  _106
REMARK   46  A    between atoms: _106  and  _107
REMARK   47  A    between atoms: _110  and  _112
REMARK   48  A    between atoms: _112  and  _113
REMARK   49  A    between atoms: _112  and  _115
REMARK   50  A    between atoms: _115  and  _116
REMARK   51  A    between atoms: _119  and  _121
REMARK   52  A    between atoms: _121  and  _122
REMARK   53  A    between atoms: _121  and  _124
REMARK   54  A    between atoms: _126  and  _128
REMARK   55  A    between atoms: _128  and  _129
REMARK   56  A    between atoms: _132  and  _134
REMARK   57  A    between atoms: _134  and  _135
REMARK   58  A    between atoms: _134  and  _137
REMARK   59  A    between atoms: _140  and  _142
REMARK   60  A    between atoms: _142  and  _143
REMARK   61  A    between atoms: _142  and  _145
REMARK   62  A    between atoms: _145  and  _146
REMARK   63  A    between atoms: _146  and  _147
REMARK   64  A    between atoms: _147  and  _148
REMARK   65  A    between atoms: _148  and  _149
REMARK   66  A    between atoms: _153  and  _155
REMARK   67  A    between atoms: _155  and  _156
REMARK   68  A    between atoms: _155  and  _158
REMARK   69  A    between atoms: _161  and  _163
REMARK   70  A    between atoms: _163  and  _164
REMARK   71  A    between atoms: _163  and  _166
REMARK   72  A    between atoms: _166  and  _167
REMARK   73  A    between atoms: _170  and  _172
REMARK   74  A    between atoms: _172  and  _173
REMARK   75  A    between atoms: _172  and  _175
REMARK   76  A    between atoms: _178  and  _180
REMARK   77  A    between atoms: _180  and  _181
REMARK   78  A    between atoms: _180  and  _183
REMARK   79  A    between atoms: _183  and  _184
REMARK   80  A    between atoms: _187  and  _189
REMARK   81  A    between atoms: _189  and  _190
REMARK   82  A    between atoms: _189  and  _192
REMARK   83  A    between atoms: _192  and  _193
REMARK   84  A    between atoms: _193  and  _194
REMARK   85  A    between atoms: _196  and  _198
REMARK   86  A    between atoms: _198  and  _199
REMARK   87  A    between atoms: _198  and  _201
REMARK   88  A    between atoms: _201  and  _202
REMARK   89  A    between atoms: _202  and  _203
REMARK   90  A    between atoms: _203  and  _204
REMARK   91  A    between atoms: _204  and  _205
REMARK   92  A    between atoms: _209  and  _211
REMARK   93  A    between atoms: _211  and  _212
REMARK   94  A    between atoms: _211  and  _214
REMARK   95  A    between atoms: _214  and  _215
REMARK   96  A    between atoms: _218  and  _220
REMARK   97  A    between atoms: _220  and  _221
REMARK   98  A    between atoms: _220  and  _223
REMARK   99  A    between atoms: _223  and  _224
REMARK  100  A    between atoms: _229  and  _230
REMARK  101  A    between atoms: _232  and  _234
REMARK  102  A    between atoms: _234  and  _235
REMARK  103  A    between atoms: _234  and  _237
REMARK  104  A    between atoms: _237  and  _238
REMARK  105  A    between atoms: _238  and  _239
REMARK  106  A    between atoms: _242  and  _244
REMARK  107  A    between atoms: _244  and  _245
REMARK  108  A    between atoms: _244  and  _247
REMARK  109  A    between atoms: _247  and  _248
REMARK  110  A    between atoms: _254  and  _256
REMARK  111  A    between atoms: _256  and  _257
REMARK  112  A    between atoms: _256  and  _259
REMARK  113  A    between atoms: _259  and  _260
REMARK  114  A    between atoms: _265  and  _266
REMARK  115  A    between atoms: _268  and  _270
REMARK  116  A    between atoms: _270  and  _271
REMARK  117  A    between atoms: _270  and  _273
REMARK  118  A    between atoms: _273  and  _274
REMARK  119  A    between atoms: _277  and  _279
REMARK  120  A    between atoms: _279  and  _280
REMARK  121  A    between atoms: _279  and  _282
REMARK  122  A    between atoms: _285  and  _287
REMARK  123  A    between atoms: _287  and  _288
REMARK  124  A    between atoms: _290  and  _292
REMARK  125  A    between atoms: _292  and  _293
REMARK  126  A    between atoms: _292  and  _295
REMARK  127  A    between atoms: _295  and  _296
REMARK  128  A    between atoms: _296  and  _297
REMARK  129  A    between atoms: _300  and  _302
REMARK  130  A    between atoms: _302  and  _303
REMARK  131  A    between atoms: _302  and  _305
REMARK  132  A    between atoms: _308  and  _310
REMARK  133  A    between atoms: _310  and  _311
REMARK  134  A    between atoms: _310  and  _313
REMARK  135  A    between atoms: _313  and  _314
REMARK  136  A    between atoms: _319  and  _320
REMARK  137  A    between atoms: _322  and  _324
REMARK  138  A    between atoms: _324  and  _325
REMARK  139  A    between atoms: _324  and  _327
REMARK  140  A    between atoms: _327  and  _328
REMARK  141  A    between atoms: _331  and  _333
REMARK  142  A    between atoms: _333  and  _334
REMARK  143  A    between atoms: _336  and  _338
REMARK  144  A    between atoms: _338  and  _339
REMARK  145  A    between atoms: _341  and  _343
REMARK  146  A    between atoms: _343  and  _344
REMARK  147  A    between atoms: _343  and  _346
REMARK  148  A    between atoms: _346  and  _347
REMARK  149  A    between atoms: _347  and  _348
REMARK  150  A    between atoms: _351  and  _353
REMARK  151  A    between atoms: _353  and  _354
REMARK  152  A    between atoms: _353  and  _356
REMARK  153  A    between atoms: _356  and  _357
REMARK  154  A    between atoms: _360  and  _362
REMARK  155  A    between atoms: _362  and  _363
REMARK  156  A    between atoms: _362  and  _365
REMARK  157  A    between atoms: _365  and  _366
REMARK  158  A    between atoms: _369  and  _371
REMARK  159  A    between atoms: _371  and  _372
REMARK  160  A    between atoms: _371  and  _374
REMARK  161  A    between atoms: _374  and  _375
REMARK  162  A    between atoms: _380  and  _382
REMARK  163  A    between atoms: _382  and  _383
REMARK  164  A    between atoms: _382  and  _385
REMARK  165  A    between atoms: _385  and  _386
REMARK  166  A    between atoms: _386  and  _387
REMARK  167  A    between atoms: _387  and  _388
REMARK  168  A    between atoms: _388  and  _389
REMARK  169  A    between atoms: _394  and  _395
REMARK  170  A    between atoms: _400  and  _402
REMARK  171  A    between atoms: _402  and  _403
REMARK  172  A    between atoms: _402  and  _405
REMARK  173  A    between atoms: _405  and  _406
REMARK  174  A    between atoms: _406  and  _407
REMARK  175  A    between atoms: _410  and  _412
REMARK  176  A    between atoms: _412  and  _413
REMARK  177  A    between atoms: _412  and  _415
REMARK  178  A    between atoms: _415  and  _416
REMARK  179  A    between atoms: _421  and  _423
REMARK  180  A    between atoms: _423  and  _424
REMARK  181  A    between atoms: _423  and  _426
REMARK  182  A    between atoms: _426  and  _427
REMARK  183  A    between atoms: _430  and  _432
REMARK  184  A    between atoms: _432  and  _433
REMARK  185  A    between atoms: _432  and  _435
REMARK  186  A    between atoms: _435  and  _436
REMARK  187  A    between atoms: _439  and  _441
REMARK  188  A    between atoms: _441  and  _442
REMARK  189  A    between atoms: _441  and  _444
REMARK  190  A    between atoms: _444  and  _445
REMARK  191  A    between atoms: _448  and  _450
REMARK  192  A    between atoms: _450  and  _451
REMARK  193  A    between atoms: _450  and  _453
REMARK  194  A    between atoms: _453  and  _454
REMARK  195  A    between atoms: _454  and  _455
REMARK  196  A    between atoms: _455  and  _456
REMARK  197  A    between atoms: _465  and  _467
REMARK  198  A    between atoms: _467  and  _468
REMARK  199  A    between atoms: _467  and  _470
REMARK  200  A    between atoms: _470  and  _471
REMARK  201  A    between atoms: _474  and  _476
REMARK  202  A    between atoms: _476  and  _477
REMARK  203  A    between atoms: _476  and  _479
REMARK  204  A    between atoms: _479  and  _480
REMARK  205  A    between atoms: _483  and  _485
REMARK  206  A    between atoms: _485  and  _486
REMARK  207  A    between atoms: _485  and  _488
REMARK  208  A    between atoms: _488  and  _489
REMARK  209  A    between atoms: _492  and  _494
REMARK  210  A    between atoms: _494  and  _495
REMARK  211  A    between atoms: _494  and  _497
REMARK  212  A    between atoms: _497  and  _498
REMARK  213  A    between atoms: _504  and  _506
REMARK  214  A    between atoms: _506  and  _507
REMARK  215  A    between atoms: _509  and  _511
REMARK  216  A    between atoms: _511  and  _512
REMARK  217  A    between atoms: _511  and  _514
REMARK  218  A    between atoms: _514  and  _515
REMARK  219  A    between atoms: _518  and  _520
REMARK  220  A    between atoms: _520  and  _521
REMARK  221  A    between atoms: _520  and  _523
REMARK  222  A    between atoms: _523  and  _524
REMARK  223  A    between atoms: _530  and  _532
REMARK  224  A    between atoms: _532  and  _533
REMARK  225  A    between atoms: _532  and  _535
REMARK  226  A    between atoms: _535  and  _536
REMARK  227  A    between atoms: _536  and  _537
REMARK  228  A    between atoms: _537  and  _538
REMARK  229  A    between atoms: _538  and  _539
REMARK  230  A    between atoms: _543  and  _545
REMARK  231  A    between atoms: _545  and  _546
REMARK  232  A    between atoms: _545  and  _548
REMARK  233  A    between atoms: _548  and  _549
REMARK  234  A    between atoms: _549  and  _550
REMARK                            x       y       z     vdW  Elec       q    Type
REMARK                         _______ _______ _______ _____ _____    ______ ____
ROOT
ATOM      1  CB  HIS A   1       8.901  18.076  55.313  0.00  0.00    +0.072 C 
ENDROOT
BRANCH   1   2
ATOM      2  CG  HIS A   1      10.212  18.236  56.029  0.00  0.00    +0.082 A 
ATOM      3  CD2 HIS A   1      11.120  17.318  56.440  0.00  0.00    +0.115 A 
ATOM      4  NE2 HIS A   1      12.157  18.004  57.027  0.00  0.00    -0.221 NA
ATOM      5  CE1 HIS A   1      11.893  19.299  56.980  0.00  0.00    +0.199 A 
ATOM      6  ND1 HIS A   1      10.732  19.467  56.367  0.00  0.00    -0.227 NA
ENDBRANCH   1   2
BRANCH   1   7
ATOM      7  CA  HIS A   1       7.707  18.627  56.086  0.00  0.00    +0.139 C 
BRANCH   7   8
ATOM      8  N   HIS A   1       6.454  18.051  55.589  0.00  0.00    -0.239 NA
ATOM      9  H   HIS A   1       6.370  17.781  54.588  0.00  0.00    +0.142 HD
ENDBRANCH   7   8
BRANCH   7  10
ATOM     10  C   HIS A   1       7.709  20.152  56.026  0.00  0.00    +0.224 C 
ATOM     11  O   HIS A   1       7.903  20.813  57.043  0.00  0.00    -0.287 OA
ENDBRANCH   7  10
ENDBRANCH   1   7
TORSDOF 4
REMARK  Name = ../refined-set-2016/3t3u/3t3u_pocket.pdb
REMARK  234 active torsions:
REMARK  status: ('A' for Active; 'I' for Inactive)
REMARK    1  A    between atoms: _1  and  _3
REMARK    2  A    between atoms: _3  and  _4
REMARK    3  A    between atoms: _3  and  _6
REMARK    4  A    between atoms: _6  and  _7
REMARK    5  A    between atoms: _7  and  _8
REMARK    6  A    between atoms: _8  and  _9
REMARK    7  A    between atoms: _18  and  _20
REMARK    8  A    between atoms: _20  and  _21
REMARK    9  A    between atoms: _20  and  _23
REMARK   10  A    between atoms: _26  and  _28
REMARK   11  A    between atoms: _28  and  _29
REMARK   12  A    between atoms: _28  and  _31
REMARK   13  A    between atoms: _31  and  _32
REMARK   14  A    between atoms: _35  and  _37
REMARK   15  A    between atoms: _37  and  _38
REMARK   16  A    between atoms: _40  and  _42
REMARK   17  A    between atoms: _42  and  _43
REMARK   18  A    between atoms: _42  and  _45
REMARK   19  A    between atoms: _45  and  _46
REMARK   20  A    between atoms: _46  and  _47
REMARK   21  A    between atoms: _47  and  _48
REMARK   22  A    between atoms: _48  and  _49
REMARK   23  A    between atoms: _53  and  _55
REMARK   24  A    between atoms: _55  and  _56
REMARK   25  A    between atoms: _58  and  _60
REMARK   26  A    between atoms: _60  and  _61
REMARK   27  A    between atoms: _60  and  _63
REMARK   28  A    between atoms: _63  and  _64
REMARK   29  A    between atoms: _66  and  _68
REMARK   30  A    between atoms: _68  and  _69
REMARK   31  A    between atoms: _68  and  _71
REMARK   32  A    between atoms: _71  and  _72
REMARK   33  A    between atoms: _78  and  _80
REMARK   34  A    between atoms: _80  and  _81
REMARK   35  A    between atoms: _83  and  _85
REMARK   36  A    between atoms: _85  and  _86
REMARK   37  A    between atoms: _85  and  _88
REMARK   38  A    between atoms: _88  and  _89
REMARK   39  A    between atoms: _89  and  _90
REMARK   40  A    between atoms: _93  and  _95
REMARK   41  A    between atoms: _95  and  _96
REMARK   42  A    between atoms: _95  and  _98
REMARK   43  A    between atoms: _101  and  _103
REMARK   44  A    between atoms: _103  and  _104
REMARK   45  A    between atoms: _103  and  _106
REMARK   46  A    between atoms: _106  and  _107
REMARK   47  A    between atoms: _110  and  _112
REMARK   48  A    between atoms: _112  and  _113
REMARK   49  A    between atoms: _112  and  _115
REMARK   50  A    between atoms: _115  and  _116
REMARK   51  A    between atoms: _119  and  _121
REMARK   52  A    between atoms: _121  and  _122
REMARK   53  A    between atoms: _121  and  _124
REMARK   54  A    between atoms: _126  and  _128
REMARK   55  A    between atoms: _128  and  _129
REMARK   56  A    between atoms: _132  and  _134
REMARK   57  A    between atoms: _134  and  _135
REMARK   58  A    between atoms: _134  and  _137
REMARK   59  A    between atoms: _140  and  _142
REMARK   60  A    between atoms: _142  and  _143
REMARK   61  A    between atoms: _142  and  _145
REMARK   62  A    between atoms: _145  and  _146
REMARK   63  A    between atoms: _146  and  _147
REMARK   64  A    between atoms: _147  and  _148
REMARK   65  A    between atoms: _148  and  _149
REMARK   66  A    between atoms: _153  and  _155
REMARK   67  A    between atoms: _155  and  _156
REMARK   68  A    between atoms: _155  and  _158
REMARK   69  A    between atoms: _161  and  _163
REMARK   70  A    between atoms: _163  and  _164
REMARK   71  A    between atoms: _163  and  _166
REMARK   72  A    between atoms: _166  and  _167
REMARK   73  A    between atoms: _170  and  _172
REMARK   74  A    between atoms: _172  and  _173
REMARK   75  A    between atoms: _172  and  _175
REMARK   76  A    between atoms: _178  and  _180
REMARK   77  A    between atoms: _180  and  _181
REMARK   78  A    between atoms: _180  and  _183
REMARK   79  A    between atoms: _183  and  _184
REMARK   80  A    between atoms: _187  and  _189
REMARK   81  A    between atoms: _189  and  _190
REMARK   82  A    between atoms: _189  and  _192
REMARK   83  A    between atoms: _192  and  _193
REMARK   84  A    between atoms: _193  and  _194
REMARK   85  A    between atoms: _196  and  _198
REMARK   86  A    between atoms: _198  and  _199
REMARK   87  A    between atoms: _198  and  _201
REMARK   88  A    between atoms: _201  and  _202
REMARK   89  A    between atoms: _202  and  _203
REMARK   90  A    between atoms: _203  and  _204
REMARK   91  A    between atoms: _204  and  _205
REMARK   92  A    between atoms: _209  and  _211
REMARK   93  A    between atoms: _211  and  _212
REMARK   94  A    between atoms: _211  and  _214
REMARK   95  A    between atoms: _214  and  _215
REMARK   96  A    between atoms: _218  and  _220
REMARK   97  A    between atoms: _220  and  _221
REMARK   98  A    between atoms: _220  and  _223
REMARK   99  A    between atoms: _223  and  _224
REMARK  100  A    between atoms: _229  and  _230
REMARK  101  A    between atoms: _232  and  _234
REMARK  102  A    between atoms: _234  and  _235
REMARK  103  A    between atoms: _234  and  _237
REMARK  104  A    between atoms: _237  and  _238
REMARK  105  A    between atoms: _238  and  _239
REMARK  106  A    between atoms: _242  and  _244
REMARK  107  A    between atoms: _244  and  _245
REMARK  108  A    between atoms: _244  and  _247
REMARK  109  A    between atoms: _247  and  _248
REMARK  110  A    between atoms: _254  and  _256
REMARK  111  A    between atoms: _256  and  _257
REMARK  112  A    between atoms: _256  and  _259
REMARK  113  A    between atoms: _259  and  _260
REMARK  114  A    between atoms: _265  and  _266
REMARK  115  A    between atoms: _268  and  _270
REMARK  116  A    between atoms: _270  and  _271
REMARK  117  A    between atoms: _270  and  _273
REMARK  118  A    between atoms: _273  and  _274
REMARK  119  A    between atoms: _277  and  _279
REMARK  120  A    between atoms: _279  and  _280
REMARK  121  A    between atoms: _279  and  _282
REMARK  122  A    between atoms: _285  and  _287
REMARK  123  A    between atoms: _287  and  _288
REMARK  124  A    between atoms: _290  and  _292
REMARK  125  A    between atoms: _292  and  _293
REMARK  126  A    between atoms: _292  and  _295
REMARK  127  A    between atoms: _295  and  _296
REMARK  128  A    between atoms: _296  and  _297
REMARK  129  A    between atoms: _300  and  _302
REMARK  130  A    between atoms: _302  and  _303
REMARK  131  A    between atoms: _302  and  _305
REMARK  132  A    between atoms: _308  and  _310
REMARK  133  A    between atoms: _310  and  _311
REMARK  134  A    between atoms: _310  and  _313
REMARK  135  A    between atoms: _313  and  _314
REMARK  136  A    between atoms: _319  and  _320
REMARK  137  A    between atoms: _322  and  _324
REMARK  138  A    between atoms: _324  and  _325
REMARK  139  A    between atoms: _324  and  _327
REMARK  140  A    between atoms: _327  and  _328
REMARK  141  A    between atoms: _331  and  _333
REMARK  142  A    between atoms: _333  and  _334
REMARK  143  A    between atoms: _336  and  _338
REMARK  144  A    between atoms: _338  and  _339
REMARK  145  A    between atoms: _341  and  _343
REMARK  146  A    between atoms: _343  and  _344
REMARK  147  A    between atoms: _343  and  _346
REMARK  148  A    between atoms: _346  and  _347
REMARK  149  A    between atoms: _347  and  _348
REMARK  150  A    between atoms: _351  and  _353
REMARK  151  A    between atoms: _353  and  _354
REMARK  152  A    between atoms: _353  and  _356
REMARK  153  A    between atoms: _356  and  _357
REMARK  154  A    between atoms: _360  and  _362
REMARK  155  A    between atoms: _362  and  _363
REMARK  156  A    between atoms: _362  and  _365
REMARK  157  A    between atoms: _365  and  _366
REMARK  158  A    between atoms: _369  and  _371
REMARK  159  A    between atoms: _371  and  _372
REMARK  160  A    between atoms: _371  and  _374
REMARK  161  A    between atoms: _374  and  _375
REMARK  162  A    between atoms: _380  and  _382
REMARK  163  A    between atoms: _382  and  _383
REMARK  164  A    between atoms: _382  and  _385
REMARK  165  A    between atoms: _385  and  _386
REMARK  166  A    between atoms: _386  and  _387
REMARK  167  A    between atoms: _387  and  _388
REMARK  168  A    between atoms: _388  and  _389
REMARK  169  A    between atoms: _394  and  _395
REMARK  170  A    between atoms: _400  and  _402
REMARK  171  A    between atoms: _402  and  _403
REMARK  172  A    between atoms: _402  and  _405
REMARK  173  A    between atoms: _405  and  _406
REMARK  174  A    between atoms: _406  and  _407
REMARK  175  A    between atoms: _410  and  _412
REMARK  176  A    between atoms: _412  and  _413
REMARK  177  A    between atoms: _412  and  _415
REMARK  178  A    between atoms: _415  and  _416
REMARK  179  A    between atoms: _421  and  _423
REMARK  180  A    between atoms: _423  and  _424
REMARK  181  A    between atoms: _423  and  _426
REMARK  182  A    between atoms: _426  and  _427
REMARK  183  A    between atoms: _430  and  _432
REMARK  184  A    between atoms: _432  and  _433
REMARK  185  A    between atoms: _432  and  _435
REMARK  186  A    between atoms: _435  and  _436
REMARK  187  A    between atoms: _439  and  _441
REMARK  188  A    between atoms: _441  and  _442
REMARK  189  A    between atoms: _441  and  _444
REMARK  190  A    between atoms: _444  and  _445
REMARK  191  A    between atoms: _448  and  _450
REMARK  192  A    between atoms: _450  and  _451
REMARK  193  A    between atoms: _450  and  _453
REMARK  194  A    between atoms: _453  and  _454
REMARK  195  A    between atoms: _454  and  _455
REMARK  196  A    between atoms: _455  and  _456
REMARK  197  A    between atoms: _465  and  _467
REMARK  198  A    between atoms: _467  and  _468
REMARK  199  A    between atoms: _467  and  _470
REMARK  200  A    between atoms: _470  and  _471
REMARK  201  A    between atoms: _474  and  _476
REMARK  202  A    between atoms: _476  and  _477
REMARK  203  A    between atoms: _476  and  _479
REMARK  204  A    between atoms: _479  and  _480
REMARK  205  A    between atoms: _483  and  _485
REMARK  206  A    between atoms: _485  and  _486
REMARK  207  A    between atoms: _485  and  _488
REMARK  208  A    between atoms: _488  and  _489
REMARK  209  A    between atoms: _492  and  _494
REMARK  210  A    between atoms: _494  and  _495
REMARK  211  A    between atoms: _494  and  _497
REMARK  212  A    between atoms: _497  and  _498
REMARK  213  A    between atoms: _504  and  _506
REMARK  214  A    between atoms: _506  and  _507
REMARK  215  A    between atoms: _509  and  _511
REMARK  216  A    between atoms: _511  and  _512
REMARK  217  A    between atoms: _511  and  _514
REMARK  218  A    between atoms: _514  and  _515
REMARK  219  A    between atoms: _518  and  _520
REMARK  220  A    between atoms: _520  and  _521
REMARK  221  A    between atoms: _520  and  _523
REMARK  222  A    between atoms: _523  and  _524
REMARK  223  A    between atoms: _530  and  _532
REMARK  224  A    between atoms: _532  and  _533
REMARK  225  A    between atoms: _532  and  _535
REMARK  226  A    between atoms: _535  and  _536
REMARK  227  A    between atoms: _536  and  _537
REMARK  228  A    between atoms: _537  and  _538
REMARK  229  A    between atoms: _538  and  _539
REMARK  230  A    between atoms: _543  and  _545
REMARK  231  A    between atoms: _545  and  _546
REMARK  232  A    between atoms: _545  and  _548
REMARK  233  A    between atoms: _548  and  _549
REMARK  234  A    between atoms: _549  and  _550
REMARK                            x       y       z     vdW  Elec       q    Type
REMARK                         _______ _______ _______ _____ _____    ______ ____
ROOT
ATOM      1  CA  ASN A   4      17.776  17.763  56.179  0.00  0.00    +0.158 C 
ENDROOT
BRANCH   1   2
ATOM      2  C   ASN A   4      17.867  16.355  55.626  0.00  0.00    +0.241 C 
ATOM      3  O   ASN A   4      17.062  15.494  55.972  0.00  0.00    -0.273 OA
ATOM      4  N   LEU A   5      18.861  16.138  54.779  0.00  0.00    -0.297 N 
ATOM      5  H   LEU A   5      19.454  16.941  54.486  0.00  0.00    +0.150 HD
BRANCH   4   6
ATOM      6  CA  LEU A   5      19.153  14.823  54.245  0.00  0.00    +0.149 C 
BRANCH   6   7
ATOM      7  C   LEU A   5      20.454  14.312  54.853  0.00  0.00    +0.241 C 
ATOM      8  N   LEU A   6      20.296  13.428  55.822  0.00  0.00    -0.297 N 
ATOM      9  H   LEU A   6      19.333  13.163  56.112  0.00  0.00    +0.150 HD
ATOM     10  O   LEU A   5      21.555  14.707  54.475  0.00  0.00    -0.273 OA
BRANCH   8  11
ATOM     11  CA  LEU A   6      21.422  12.819  56.491  0.00  0.00    +0.149 C 
BRANCH  11  12
ATOM     12  C   LEU A   6      21.727  11.457  55.900  0.00  0.00    +0.241 C 
ATOM     13  N   LEU A   7      22.987  11.072  56.036  0.00  0.00    -0.298 N 
ATOM     14  H   LEU A   7      23.656  11.713  56.509  0.00  0.00    +0.150 HD
ATOM     15  O   LEU A   6      20.872  10.786  55.321  0.00  0.00    -0.273 OA
BRANCH  13  16
ATOM     16  CA  LEU A   7      23.475   9.787  55.550  0.00  0.00    +0.137 C 
BRANCH  16  17
ATOM     17  C   LEU A   7      23.745   8.869  56.754  0.00  0.00    +0.227 C 
ATOM     18  O   LEU A   7      24.196   9.316  57.810  0.00  0.00    -0.286 OA
ENDBRANCH  16  17
BRANCH  16  19
ATOM     19  CB  LEU A   7      24.738   9.986  54.705  0.00  0.00    +0.028 C 
BRANCH  19  20
ATOM     20  CG  LEU A   7      24.530  10.493  53.269  0.00  0.00    +0.002 C 
ATOM     21  CD2 LEU A   7      25.875  10.795  52.641  0.00  0.00    +0.000 C 
ATOM     22  CD1 LEU A   7      23.781   9.474  52.420  0.00  0.00    +0.000 C 
ENDBRANCH  19  20
ENDBRANCH  16  19
ENDBRANCH  13  16
ENDBRANCH  11  12
BRANCH  11  23
ATOM     23  CB  LEU A   6      21.172  12.712  57.998  0.00  0.00    +0.029 C 
BRANCH  23  24
ATOM     24  CG  LEU A   6      21.031  14.031  58.765  0.00  0.00    +0.002 C 
ATOM     25  CD2 LEU A   6      20.999  13.760  60.291  0.00  0.00    +0.000 C 
ATOM     26  CD1 LEU A   6      22.142  15.038  58.423  0.00  0.00    +0.000 C 
ENDBRANCH  23  24
ENDBRANCH  11  23
ENDBRANCH   8  11
ENDBRANCH   6   7
BRANCH   6  27
ATOM     27  CB  LEU A   5      19.238  14.856  52.726  0.00  0.00    +0.029 C 
BRANCH  27  28
ATOM     28  CG  LEU A   5      18.017  15.443  52.008  0.00  0.00    +0.002 C 
ATOM     29  CD2 LEU A   5      16.723  14.672  52.361  0.00  0.00    +0.000 C 
ATOM     30  CD1 LEU A   5      18.281  15.429  50.486  0.00  0.00    +0.000 C 
ENDBRANCH  27  28
ENDBRANCH   6  27
ENDBRANCH   4   6
ENDBRANCH   1   2
BRANCH   1  33
ATOM     31  C   GLU A   3      19.909  18.986  56.035  0.00  0.00    +0.241 C 
ATOM     32  O   GLU A   3      20.381  18.446  57.035  0.00  0.00    -0.273 OA
ATOM     33  N   ASN A   4      18.693  18.728  55.558  0.00  0.00    -0.297 N 
ATOM     34  H   ASN A   4      18.378  19.233  54.706  0.00  0.00    +0.150 HD
BRANCH  31  35
ATOM     35  CA  GLU A   3      20.688  20.066  55.294  0.00  0.00    +0.149 C 
BRANCH  35  37
ATOM     36  C   PRO A   2      20.258  19.108  53.055  0.00  0.00    +0.241 C 
ATOM     37  N   GLU A   3      20.289  20.165  53.862  0.00  0.00    -0.297 N 
ATOM     38  H   GLU A   3      20.025  21.095  53.479  0.00  0.00    +0.150 HD
ATOM     39  O   PRO A   2      20.601  17.993  53.410  0.00  0.00    -0.273 OA
BRANCH  36  43
ATOM     40  C   LYS A   1      17.508  20.070  52.200  0.00  0.00    +0.241 C 
ATOM     41  O   LYS A   1      17.395  19.127  52.962  0.00  0.00    -0.273 OA
ATOM     42  N   PRO A   2      18.633  20.273  51.512  0.00  0.00    -0.272 N 
ATOM     43  CA  PRO A   2      19.770  19.331  51.634  0.00  0.00    +0.152 C 
ATOM     44  CB  PRO A   2      20.861  20.002  50.792  0.00  0.00    +0.031 C 
ATOM     45  CG  PRO A   2      20.103  20.685  49.730  0.00  0.00    +0.024 C 
ATOM     46  CD  PRO A   2      18.813  21.167  50.362  0.00  0.00    +0.094 C 
BRANCH  40  47
ATOM     47  CA  LYS A   1      16.316  21.029  51.991  0.00  0.00    +0.145 C 
BRANCH  47  48
ATOM     48  N   LYS A   1      15.095  20.468  52.581  0.00  0.00    -0.238 NA
ATOM     49  H   LYS A   1      15.199  19.722  53.298  0.00  0.00    +0.142 HD
ENDBRANCH  47  48
BRANCH  47  50
ATOM     50  CB  LYS A   1      16.604  22.420  52.548  0.00  0.00    +0.026 C 
BRANCH  50  51
ATOM     51  CG  LYS A   1      16.803  22.482  53.999  0.00  0.00    -0.000 C 
BRANCH  51  52
ATOM     52  CD  LYS A   1      16.395  23.831  54.432  0.00  0.00    -0.024 C 
BRANCH  52  53
ATOM     53  CE  LYS A   1      17.016  24.158  55.711  0.00  0.00    -0.086 C 
BRANCH  53  54
ATOM     54  NZ  LYS A   1      16.269  23.476  56.776  0.00  0.00    +0.380 N 
ATOM     55  HZ1 LYS A   1      16.699  23.699  57.696  0.00  0.00    -0.089 HD
ATOM     56  HZ2 LYS A   1      15.281  23.800  56.766  0.00  0.00    -0.089 HD
ATOM     57  HZ3 LYS A   1      16.300  22.449  56.617  0.00  0.00    -0.089 HD
ENDBRANCH  53  54
ENDBRANCH  52  53
ENDBRANCH  51  52
ENDBRANCH  50  51
ENDBRANCH  47  50
ENDBRANCH  40  47
ENDBRANCH  36  43
ENDBRANCH  35  37
BRANCH  35  58
ATOM     58  CB  GLU A   3      20.463  21.392  56.051  0.00  0.00    +0.041 C 
BRANCH  58  59
ATOM     59  CG  GLU A   3      21.694  22.270  56.152  0.00  0.00    +0.116 C 
BRANCH  59  60
ATOM     60  CD  GLU A   3      21.579  23.350  57.223  0.00  0.00    +0.365 C 
ATOM     61  OE2 GLU A   3      20.449  23.654  57.663  0.00  0.00    -0.246 OA
ATOM     62  OE1 GLU A   3      22.633  23.895  57.618  0.00  0.00    -0.246 OA
ENDBRANCH  59  60
ENDBRANCH  58  59
ENDBRANCH  35  58
ENDBRANCH  31  35
ENDBRANCH   1  33
BRANCH   1  63
ATOM     63  CB  ASN A   4      16.326  18.248  56.095  0.00  0.00    +0.114 C 
BRANCH  63  64
ATOM     64  CG  ASN A   4      16.027  19.301  57.113  0.00  0.00    +0.222 C 
ATOM     65  OD1 ASN A   4      16.606  19.294  58.197  0.00  0.00    -0.275 OA
ATOM     66  ND2 ASN A   4      15.139  20.219  56.780  0.00  0.00    -0.329 N 
ATOM     67 HD21 ASN A   4      14.902  20.980  57.448  0.00  0.00    +0.145 HD
ATOM     68 HD22 ASN A   4      14.676  20.181  55.850  0.00  0.00    +0.145 HD
ENDBRANCH  63  64
ENDBRANCH   1  63
TORSDOF 29
REMARK  Name = ../refined-set-2016/3t3u/3t3u_pocket.pdb
REMARK  234 active torsions:
REMARK  status: ('A' for Active; 'I' for Inactive)
REMARK    1  A    between atoms: _1  and  _3
REMARK    2  A    between atoms: _3  and  _4
REMARK    3  A    between atoms: _3  and  _6
REMARK    4  A    between atoms: _6  and  _7
REMARK    5  A    between atoms: _7  and  _8
REMARK    6  A    between atoms: _8  and  _9
REMARK    7  A    between atoms: _18  and  _20
REMARK    8  A    between atoms: _20  and  _21
REMARK    9  A    between atoms: _20  and  _23
REMARK   10  A    between atoms: _26  and  _28
REMARK   11  A    between atoms: _28  and  _29
REMARK   12  A    between atoms: _28  and  _31
REMARK   13  A    between atoms: _31  and  _32
REMARK   14  A    between atoms: _35  and  _37
REMARK   15  A    between atoms: _37  and  _38
REMARK   16  A    between atoms: _40  and  _42
REMARK   17  A    between atoms: _42  and  _43
REMARK   18  A    between atoms: _42  and  _45
REMARK   19  A    between atoms: _45  and  _46
REMARK   20  A    between atoms: _46  and  _47
REMARK   21  A    between atoms: _47  and  _48
REMARK   22  A    between atoms: _48  and  _49
REMARK   23  A    between atoms: _53  and  _55
REMARK   24  A    between atoms: _55  and  _56
REMARK   25  A    between atoms: _58  and  _60
REMARK   26  A    between atoms: _60  and  _61
REMARK   27  A    between atoms: _60  and  _63
REMARK   28  A    between atoms: _63  and  _64
REMARK   29  A    between atoms: _66  and  _68
REMARK   30  A    between atoms: _68  and  _69
REMARK   31  A    between atoms: _68  and  _71
REMARK   32  A    between atoms: _71  and  _72
REMARK   33  A    between atoms: _78  and  _80
REMARK   34  A    between atoms: _80  and  _81
REMARK   35  A    between atoms: _83  and  _85
REMARK   36  A    between atoms: _85  and  _86
REMARK   37  A    between atoms: _85  and  _88
REMARK   38  A    between atoms: _88  and  _89
REMARK   39  A    between atoms: _89  and  _90
REMARK   40  A    between atoms: _93  and  _95
REMARK   41  A    between atoms: _95  and  _96
REMARK   42  A    between atoms: _95  and  _98
REMARK   43  A    between atoms: _101  and  _103
REMARK   44  A    between atoms: _103  and  _104
REMARK   45  A    between atoms: _103  and  _106
REMARK   46  A    between atoms: _106  and  _107
REMARK   47  A    between atoms: _110  and  _112
REMARK   48  A    between atoms: _112  and  _113
REMARK   49  A    between atoms: _112  and  _115
REMARK   50  A    between atoms: _115  and  _116
REMARK   51  A    between atoms: _119  and  _121
REMARK   52  A    between atoms: _121  and  _122
REMARK   53  A    between atoms: _121  and  _124
REMARK   54  A    between atoms: _126  and  _128
REMARK   55  A    between atoms: _128  and  _129
REMARK   56  A    between atoms: _132  and  _134
REMARK   57  A    between atoms: _134  and  _135
REMARK   58  A    between atoms: _134  and  _137
REMARK   59  A    between atoms: _140  and  _142
REMARK   60  A    between atoms: _142  and  _143
REMARK   61  A    between atoms: _142  and  _145
REMARK   62  A    between atoms: _145  and  _146
REMARK   63  A    between atoms: _146  and  _147
REMARK   64  A    between atoms: _147  and  _148
REMARK   65  A    between atoms: _148  and  _149
REMARK   66  A    between atoms: _153  and  _155
REMARK   67  A    between atoms: _155  and  _156
REMARK   68  A    between atoms: _155  and  _158
REMARK   69  A    between atoms: _161  and  _163
REMARK   70  A    between atoms: _163  and  _164
REMARK   71  A    between atoms: _163  and  _166
REMARK   72  A    between atoms: _166  and  _167
REMARK   73  A    between atoms: _170  and  _172
REMARK   74  A    between atoms: _172  and  _173
REMARK   75  A    between atoms: _172  and  _175
REMARK   76  A    between atoms: _178  and  _180
REMARK   77  A    between atoms: _180  and  _181
REMARK   78  A    between atoms: _180  and  _183
REMARK   79  A    between atoms: _183  and  _184
REMARK   80  A    between atoms: _187  and  _189
REMARK   81  A    between atoms: _189  and  _190
REMARK   82  A    between atoms: _189  and  _192
REMARK   83  A    between atoms: _192  and  _193
REMARK   84  A    between atoms: _193  and  _194
REMARK   85  A    between atoms: _196  and  _198
REMARK   86  A    between atoms: _198  and  _199
REMARK   87  A    between atoms: _198  and  _201
REMARK   88  A    between atoms: _201  and  _202
REMARK   89  A    between atoms: _202  and  _203
REMARK   90  A    between atoms: _203  and  _204
REMARK   91  A    between atoms: _204  and  _205
REMARK   92  A    between atoms: _209  and  _211
REMARK   93  A    between atoms: _211  and  _212
REMARK   94  A    between atoms: _211  and  _214
REMARK   95  A    between atoms: _214  and  _215
REMARK   96  A    between atoms: _218  and  _220
REMARK   97  A    between atoms: _220  and  _221
REMARK   98  A    between atoms: _220  and  _223
REMARK   99  A    between atoms: _223  and  _224
REMARK  100  A    between atoms: _229  and  _230
REMARK  101  A    between atoms: _232  and  _234
REMARK  102  A    between atoms: _234  and  _235
REMARK  103  A    between atoms: _234  and  _237
REMARK  104  A    between atoms: _237  and  _238
REMARK  105  A    between atoms: _238  and  _239
REMARK  106  A    between atoms: _242  and  _244
REMARK  107  A    between atoms: _244  and  _245
REMARK  108  A    between atoms: _244  and  _247
REMARK  109  A    between atoms: _247  and  _248
REMARK  110  A    between atoms: _254  and  _256
REMARK  111  A    between atoms: _256  and  _257
REMARK  112  A    between atoms: _256  and  _259
REMARK  113  A    between atoms: _259  and  _260
REMARK  114  A    between atoms: _265  and  _266
REMARK  115  A    between atoms: _268  and  _270
REMARK  116  A    between atoms: _270  and  _271
REMARK  117  A    between atoms: _270  and  _273
REMARK  118  A    between atoms: _273  and  _274
REMARK  119  A    between atoms: _277  and  _279
REMARK  120  A    between atoms: _279  and  _280
REMARK  121  A    between atoms: _279  and  _282
REMARK  122  A    between atoms: _285  and  _287
REMARK  123  A    between atoms: _287  and  _288
REMARK  124  A    between atoms: _290  and  _292
REMARK  125  A    between atoms: _292  and  _293
REMARK  126  A    between atoms: _292  and  _295
REMARK  127  A    between atoms: _295  and  _296
REMARK  128  A    between atoms: _296  and  _297
REMARK  129  A    between atoms: _300  and  _302
REMARK  130  A    between atoms: _302  and  _303
REMARK  131  A    between atoms: _302  and  _305
REMARK  132  A    between atoms: _308  and  _310
REMARK  133  A    between atoms: _310  and  _311
REMARK  134  A    between atoms: _310  and  _313
REMARK  135  A    between atoms: _313  and  _314
REMARK  136  A    between atoms: _319  and  _320
REMARK  137  A    between atoms: _322  and  _324
REMARK  138  A    between atoms: _324  and  _325
REMARK  139  A    between atoms: _324  and  _327
REMARK  140  A    between atoms: _327  and  _328
REMARK  141  A    between atoms: _331  and  _333
REMARK  142  A    between atoms: _333  and  _334
REMARK  143  A    between atoms: _336  and  _338
REMARK  144  A    between atoms: _338  and  _339
REMARK  145  A    between atoms: _341  and  _343
REMARK  146  A    between atoms: _343  and  _344
REMARK  147  A    between atoms: _343  and  _346
REMARK  148  A    between atoms: _346  and  _347
REMARK  149  A    between atoms: _347  and  _348
REMARK  150  A    between atoms: _351  and  _353
REMARK  151  A    between atoms: _353  and  _354
REMARK  152  A    between atoms: _353  and  _356
REMARK  153  A    between atoms: _356  and  _357
REMARK  154  A    between atoms: _360  and  _362
REMARK  155  A    between atoms: _362  and  _363
REMARK  156  A    between atoms: _362  and  _365
REMARK  157  A    between atoms: _365  and  _366
REMARK  158  A    between atoms: _369  and  _371
REMARK  159  A    between atoms: _371  and  _372
REMARK  160  A    between atoms: _371  and  _374
REMARK  161  A    between atoms: _374  and  _375
REMARK  162  A    between atoms: _380  and  _382
REMARK  163  A    between atoms: _382  and  _383
REMARK  164  A    between atoms: _382  and  _385
REMARK  165  A    between atoms: _385  and  _386
REMARK  166  A    between atoms: _386  and  _387
REMARK  167  A    between atoms: _387  and  _388
REMARK  168  A    between atoms: _388  and  _389
REMARK  169  A    between atoms: _394  and  _395
REMARK  170  A    between atoms: _400  and  _402
REMARK  171  A    between atoms: _402  and  _403
REMARK  172  A    between atoms: _402  and  _405
REMARK  173  A    between atoms: _405  and  _406
REMARK  174  A    between atoms: _406  and  _407
REMARK  175  A    between atoms: _410  and  _412
REMARK  176  A    between atoms: _412  and  _413
REMARK  177  A    between atoms: _412  and  _415
REMARK  178  A    between atoms: _415  and  _416
REMARK  179  A    between atoms: _421  and  _423
REMARK  180  A    between atoms: _423  and  _424
REMARK  181  A    between atoms: _423  and  _426
REMARK  182  A    between atoms: _426  and  _427
REMARK  183  A    between atoms: _430  and  _432
REMARK  184  A    between atoms: _432  and  _433
REMARK  185  A    between atoms: _432  and  _435
REMARK  186  A    between atoms: _435  and  _436
REMARK  187  A    between atoms: _439  and  _441
REMARK  188  A    between atoms: _441  and  _442
REMARK  189  A    between atoms: _441  and  _444
REMARK  190  A    between atoms: _444  and  _445
REMARK  191  A    between atoms: _448  and  _450
REMARK  192  A    between atoms: _450  and  _451
REMARK  193  A    between atoms: _450  and  _453
REMARK  194  A    between atoms: _453  and  _454
REMARK  195  A    between atoms: _454  and  _455
REMARK  196  A    between atoms: _455  and  _456
REMARK  197  A    between atoms: _465  and  _467
REMARK  198  A    between atoms: _467  and  _468
REMARK  199  A    between atoms: _467  and  _470
REMARK  200  A    between atoms: _470  and  _471
REMARK  201  A    between atoms: _474  and  _476
REMARK  202  A    between atoms: _476  and  _477
REMARK  203  A    between atoms: _476  and  _479
REMARK  204  A    between atoms: _479  and  _480
REMARK  205  A    between atoms: _483  and  _485
REMARK  206  A    between atoms: _485  and  _486
REMARK  207  A    between atoms: _485  and  _488
REMARK  208  A    between atoms: _488  and  _489
REMARK  209  A    between atoms: _492  and  _494
REMARK  210  A    between atoms: _494  and  _495
REMARK  211  A    between atoms: _494  and  _497
REMARK  212  A    between atoms: _497  and  _498
REMARK  213  A    between atoms: _504  and  _506
REMARK  214  A    between atoms: _506  and  _507
REMARK  215  A    between atoms: _509  and  _511
REMARK  216  A    between atoms: _511  and  _512
REMARK  217  A    between atoms: _511  and  _514
REMARK  218  A    between atoms: _514  and  _515
REMARK  219  A    between atoms: _518  and  _520
REMARK  220  A    between atoms: _520  and  _521
REMARK  221  A    between atoms: _520  and  _523
REMARK  222  A    between atoms: _523  and  _524
REMARK  223  A    between atoms: _530  and  _532
REMARK  224  A    between atoms: _532  and  _533
REMARK  225  A    between atoms: _532  and  _535
REMARK  226  A    between atoms: _535  and  _536
REMARK  227  A    between atoms: _536  and  _537
REMARK  228  A    between atoms: _537  and  _538
REMARK  229  A    between atoms: _538  and  _539
REMARK  230  A    between atoms: _543  and  _545
REMARK  231  A    between atoms: _545  and  _546
REMARK  232  A    between atoms: _545  and  _548
REMARK  233  A    between atoms: _548  and  _549
REMARK  234  A    between atoms: _549  and  _550
REMARK                            x       y       z     vdW  Elec       q    Type
REMARK                         _______ _______ _______ _____ _____    ______ ____
ROOT
ATOM      1  C   ILE A   3      14.219  15.939  59.353  0.00  0.00    +0.241 C 
ATOM      2  N   ASP A   4      13.598  16.188  60.503  0.00  0.00    -0.297 N 
ATOM      3  H   ASP A   4      13.792  15.538  61.291  0.00  0.00    +0.150 HD
ATOM      4  O   ILE A   3      14.068  16.598  58.330  0.00  0.00    -0.273 OA
ENDROOT
BRANCH   2   5
ATOM      5  CA  ASP A   4      12.655  17.304  60.771  0.00  0.00    +0.160 C 
BRANCH   5   6
ATOM      6  C   ASP A   4      11.244  17.212  60.183  0.00  0.00    +0.241 C 
ATOM      7  O   ASP A   4      10.512  18.184  60.230  0.00  0.00    -0.273 OA
ATOM      8  N   PHE A   5      10.832  16.056  59.674  0.00  0.00    -0.297 N 
ATOM      9  H   PHE A   5      11.507  15.279  59.527  0.00  0.00    +0.150 HD
BRANCH   8  10
ATOM     10  CA  PHE A   5       9.411  15.882  59.318  0.00  0.00    +0.153 C 
BRANCH  10  11
ATOM     11  C   PHE A   5       8.463  16.236  60.468  0.00  0.00    +0.241 C 
ATOM     12  O   PHE A   5       8.638  15.808  61.611  0.00  0.00    -0.273 OA
ATOM     13  N   GLY A   6       7.472  17.053  60.150  0.00  0.00    -0.295 N 
ATOM     14  H   GLY A   6       7.459  17.482  59.203  0.00  0.00    +0.150 HD
BRANCH  13  15
ATOM     15  CA  GLY A   6       6.392  17.374  61.087  0.00  0.00    +0.176 C 
BRANCH  15  16
ATOM     16  C   GLY A   6       6.631  18.502  62.070  0.00  0.00    +0.243 C 
ATOM     17  O   GLY A   6       5.703  18.937  62.747  0.00  0.00    -0.273 OA
ATOM     18  N   LEU A   7       7.861  18.993  62.151  0.00  0.00    -0.298 N 
ATOM     19  H   LEU A   7       8.611  18.609  61.541  0.00  0.00    +0.150 HD
BRANCH  18  20
ATOM     20  CA  LEU A   7       8.174  20.081  63.101  0.00  0.00    +0.137 C 
BRANCH  20  21
ATOM     21  C   LEU A   7       7.504  21.424  62.773  0.00  0.00    +0.227 C 
ATOM     22  O   LEU A   7       7.028  22.120  63.663  0.00  0.00    -0.286 OA
ENDBRANCH  20  21
BRANCH  20  23
ATOM     23  CB  LEU A   7       9.681  20.275  63.239  0.00  0.00    +0.028 C 
BRANCH  23  24
ATOM     24  CG  LEU A   7      10.397  19.161  64.020  0.00  0.00    +0.002 C 
ATOM     25  CD2 LEU A   7       9.681  18.866  65.345  0.00  0.00    +0.000 C 
ATOM     26  CD1 LEU A   7      11.826  19.565  64.261  0.00  0.00    +0.000 C 
ENDBRANCH  23  24
ENDBRANCH  20  23
ENDBRANCH  18  20
ENDBRANCH  15  16
ENDBRANCH  13  15
ENDBRANCH  10  11
BRANCH  10  27
ATOM     27  CB  PHE A   5       9.092  14.460  58.824  0.00  0.00    +0.055 C 
BRANCH  27  28
ATOM     28  CG  PHE A   5       8.799  14.394  57.356  0.00  0.00    -0.020 A 
ATOM     29  CD2 PHE A   5       7.562  14.799  56.867  0.00  0.00    -0.004 A 
ATOM     30  CE2 PHE A   5       7.294  14.765  55.500  0.00  0.00    -0.000 A 
ATOM     31  CZ  PHE A   5       8.270  14.319  54.620  0.00  0.00    -0.000 A 
ATOM     32  CE1 PHE A   5       9.518  13.925  55.108  0.00  0.00    -0.000 A 
ATOM     33  CD1 PHE A   5       9.774  13.962  56.456  0.00  0.00    -0.004 A 
ENDBRANCH  27  28
ENDBRANCH  10  27
ENDBRANCH   8  10
ENDBRANCH   5   6
BRANCH   5  34
ATOM     34  CB  ASP A   4      13.264  18.673  60.413  0.00  0.00    +0.143 C 
BRANCH  34  35
ATOM     35  CG  ASP A   4      14.179  19.216  61.506  0.00  0.00    +0.367 C 
ATOM     36  OD2 ASP A   4      14.166  18.711  62.648  0.00  0.00    -0.246 OA
ATOM     37  OD1 ASP A   4      14.929  20.160  61.211  0.00  0.00    -0.246 OA
ENDBRANCH  34  35
ENDBRANCH   5  34
ENDBRANCH   2   5
BRANCH   1  38
ATOM     38  CA  ILE A   3      15.172  14.732  59.398  0.00  0.00    +0.149 C 
BRANCH  38  41
ATOM     39  C   ILE A   2      14.869  13.024  57.674  0.00  0.00    +0.241 C 
ATOM     40  O   ILE A   2      14.183  12.304  58.397  0.00  0.00    -0.273 OA
ATOM     41  N   ILE A   3      15.421  14.157  58.084  0.00  0.00    -0.297 N 
ATOM     42  H   ILE A   3      16.062  14.659  57.437  0.00  0.00    +0.150 HD
BRANCH  39  43
ATOM     43  CA  ILE A   2      15.149  12.657  56.221  0.00  0.00    +0.148 C 
BRANCH  43  46
ATOM     44  C   ARG A   1      17.016  11.091  56.338  0.00  0.00    +0.238 C 
ATOM     45  O   ARG A   1      17.838  11.978  56.550  0.00  0.00    -0.274 OA
ATOM     46  N   ILE A   2      15.725  11.315  56.125  0.00  0.00    -0.297 N 
ATOM     47  H   ILE A   2      15.106  10.515  55.883  0.00  0.00    +0.150 HD
BRANCH  44  48
ATOM     48  CA  ARG A   1      17.443   9.649  56.318  0.00  0.00    +0.145 C 
BRANCH  48  49
ATOM     49  N   ARG A   1      18.485   9.463  55.317  0.00  0.00    -0.238 NA
ATOM     50  H   ARG A   1      19.378   9.988  55.409  0.00  0.00    +0.142 HD
ENDBRANCH  48  49
BRANCH  48  51
ATOM     51  CB  ARG A   1      17.932   9.259  57.712  0.00  0.00    +0.030 C 
BRANCH  51  52
ATOM     52  CG  ARG A   1      18.257   7.800  57.870  0.00  0.00    +0.045 C 
BRANCH  52  53
ATOM     53  CD  ARG A   1      17.055   7.002  58.257  0.00  0.00    +0.174 C 
BRANCH  53  54
ATOM     54  NE  ARG A   1      17.441   5.624  58.551  0.00  0.00    -0.265 N 
ATOM     55  CZ  ARG A   1      16.627   4.707  59.059  0.00  0.00    +0.342 C 
ATOM     56  NH2 ARG A   1      15.356   5.013  59.349  0.00  0.00    -0.292 N 
ATOM     57 HH21 ARG A   1      14.725   4.289  59.747  0.00  0.00    +0.255 HD
ATOM     58 HH22 ARG A   1      15.000   5.975  59.176  0.00  0.00    +0.255 HD
ATOM     59  NH1 ARG A   1      17.084   3.470  59.264  0.00  0.00    -0.292 N 
ATOM     60 HH11 ARG A   1      16.456   2.743  59.662  0.00  0.00    +0.255 HD
ATOM     61 HH12 ARG A   1      18.068   3.233  59.026  0.00  0.00    +0.255 HD
ATOM     62  HE  ARG A   1      18.421   5.342  58.348  0.00  0.00    +0.259 HD
ENDBRANCH  53  54
ENDBRANCH  52  53
ENDBRANCH  51  52
ENDBRANCH  48  51
ENDBRANCH  44  48
ENDBRANCH  43  46
BRANCH  43  63
ATOM     63  CB  ILE A   2      13.849  12.816  55.411  0.00  0.00    +0.027 C 
ATOM     64  CG2 ILE A   2      13.358  14.260  55.483  0.00  0.00    +0.002 C 
BRANCH  63  65
ATOM     65  CG1 ILE A   2      14.055  12.429  53.932  0.00  0.00    +0.002 C 
ATOM     66  CD1 ILE A   2      12.771  12.317  53.155  0.00  0.00    +0.000 C 
ENDBRANCH  63  65
ENDBRANCH  43  63
ENDBRANCH  39  43
ENDBRANCH  38  41
BRANCH  38  67
ATOM     67  CB  ILE A   3      16.476  15.120  60.130  0.00  0.00    +0.027 C 
ATOM     68  CG2 ILE A   3      17.234  13.881  60.572  0.00  0.00    +0.002 C 
BRANCH  67  69
ATOM     69  CG1 ILE A   3      17.361  16.008  59.253  0.00  0.00    +0.002 C 
ATOM     70  CD1 ILE A   3      18.363  16.835  60.007  0.00  0.00    +0.000 C 
ENDBRANCH  67  69
ENDBRANCH  38  67
ENDBRANCH   1  38
TORSDOF 28
REMARK  Name = ../refined-set-2016/3t3u/3t3u_pocket.pdb
REMARK  234 active torsions:
REMARK  status: ('A' for Active; 'I' for Inactive)
REMARK    1  A    between atoms: _1  and  _3
REMARK    2  A    between atoms: _3  and  _4
REMARK    3  A    between atoms: _3  and  _6
REMARK    4  A    between atoms: _6  and  _7
REMARK    5  A    between atoms: _7  and  _8
REMARK    6  A    between atoms: _8  and  _9
REMARK    7  A    between atoms: _18  and  _20
REMARK    8  A    between atoms: _20  and  _21
REMARK    9  A    between atoms: _20  and  _23
REMARK   10  A    between atoms: _26  and  _28
REMARK   11  A    between atoms: _28  and  _29
REMARK   12  A    between atoms: _28  and  _31
REMARK   13  A    between atoms: _31  and  _32
REMARK   14  A    between atoms: _35  and  _37
REMARK   15  A    between atoms: _37  and  _38
REMARK   16  A    between atoms: _40  and  _42
REMARK   17  A    between atoms: _42  and  _43
REMARK   18  A    between atoms: _42  and  _45
REMARK   19  A    between atoms: _45  and  _46
REMARK   20  A    between atoms: _46  and  _47
REMARK   21  A    between atoms: _47  and  _48
REMARK   22  A    between atoms: _48  and  _49
REMARK   23  A    between atoms: _53  and  _55
REMARK   24  A    between atoms: _55  and  _56
REMARK   25  A    between atoms: _58  and  _60
REMARK   26  A    between atoms: _60  and  _61
REMARK   27  A    between atoms: _60  and  _63
REMARK   28  A    between atoms: _63  and  _64
REMARK   29  A    between atoms: _66  and  _68
REMARK   30  A    between atoms: _68  and  _69
REMARK   31  A    between atoms: _68  and  _71
REMARK   32  A    between atoms: _71  and  _72
REMARK   33  A    between atoms: _78  and  _80
REMARK   34  A    between atoms: _80  and  _81
REMARK   35  A    between atoms: _83  and  _85
REMARK   36  A    between atoms: _85  and  _86
REMARK   37  A    between atoms: _85  and  _88
REMARK   38  A    between atoms: _88  and  _89
REMARK   39  A    between atoms: _89  and  _90
REMARK   40  A    between atoms: _93  and  _95
REMARK   41  A    between atoms: _95  and  _96
REMARK   42  A    between atoms: _95  and  _98
REMARK   43  A    between atoms: _101  and  _103
REMARK   44  A    between atoms: _103  and  _104
REMARK   45  A    between atoms: _103  and  _106
REMARK   46  A    between atoms: _106  and  _107
REMARK   47  A    between atoms: _110  and  _112
REMARK   48  A    between atoms: _112  and  _113
REMARK   49  A    between atoms: _112  and  _115
REMARK   50  A    between atoms: _115  and  _116
REMARK   51  A    between atoms: _119  and  _121
REMARK   52  A    between atoms: _121  and  _122
REMARK   53  A    between atoms: _121  and  _124
REMARK   54  A    between atoms: _126  and  _128
REMARK   55  A    between atoms: _128  and  _129
REMARK   56  A    between atoms: _132  and  _134
REMARK   57  A    between atoms: _134  and  _135
REMARK   58  A    between atoms: _134  and  _137
REMARK   59  A    between atoms: _140  and  _142
REMARK   60  A    between atoms: _142  and  _143
REMARK   61  A    between atoms: _142  and  _145
REMARK   62  A    between atoms: _145  and  _146
REMARK   63  A    between atoms: _146  and  _147
REMARK   64  A    between atoms: _147  and  _148
REMARK   65  A    between atoms: _148  and  _149
REMARK   66  A    between atoms: _153  and  _155
REMARK   67  A    between atoms: _155  and  _156
REMARK   68  A    between atoms: _155  and  _158
REMARK   69  A    between atoms: _161  and  _163
REMARK   70  A    between atoms: _163  and  _164
REMARK   71  A    between atoms: _163  and  _166
REMARK   72  A    between atoms: _166  and  _167
REMARK   73  A    between atoms: _170  and  _172
REMARK   74  A    between atoms: _172  and  _173
REMARK   75  A    between atoms: _172  and  _175
REMARK   76  A    between atoms: _178  and  _180
REMARK   77  A    between atoms: _180  and  _181
REMARK   78  A    between atoms: _180  and  _183
REMARK   79  A    between atoms: _183  and  _184
REMARK   80  A    between atoms: _187  and  _189
REMARK   81  A    between atoms: _189  and  _190
REMARK   82  A    between atoms: _189  and  _192
REMARK   83  A    between atoms: _192  and  _193
REMARK   84  A    between atoms: _193  and  _194
REMARK   85  A    between atoms: _196  and  _198
REMARK   86  A    between atoms: _198  and  _199
REMARK   87  A    between atoms: _198  and  _201
REMARK   88  A    between atoms: _201  and  _202
REMARK   89  A    between atoms: _202  and  _203
REMARK   90  A    between atoms: _203  and  _204
REMARK   91  A    between atoms: _204  and  _205
REMARK   92  A    between atoms: _209  and  _211
REMARK   93  A    between atoms: _211  and  _212
REMARK   94  A    between atoms: _211  and  _214
REMARK   95  A    between atoms: _214  and  _215
REMARK   96  A    between atoms: _218  and  _220
REMARK   97  A    between atoms: _220  and  _221
REMARK   98  A    between atoms: _220  and  _223
REMARK   99  A    between atoms: _223  and  _224
REMARK  100  A    between atoms: _229  and  _230
REMARK  101  A    between atoms: _232  and  _234
REMARK  102  A    between atoms: _234  and  _235
REMARK  103  A    between atoms: _234  and  _237
REMARK  104  A    between atoms: _237  and  _238
REMARK  105  A    between atoms: _238  and  _239
REMARK  106  A    between atoms: _242  and  _244
REMARK  107  A    between atoms: _244  and  _245
REMARK  108  A    between atoms: _244  and  _247
REMARK  109  A    between atoms: _247  and  _248
REMARK  110  A    between atoms: _254  and  _256
REMARK  111  A    between atoms: _256  and  _257
REMARK  112  A    between atoms: _256  and  _259
REMARK  113  A    between atoms: _259  and  _260
REMARK  114  A    between atoms: _265  and  _266
REMARK  115  A    between atoms: _268  and  _270
REMARK  116  A    between atoms: _270  and  _271
REMARK  117  A    between atoms: _270  and  _273
REMARK  118  A    between atoms: _273  and  _274
REMARK  119  A    between atoms: _277  and  _279
REMARK  120  A    between atoms: _279  and  _280
REMARK  121  A    between atoms: _279  and  _282
REMARK  122  A    between atoms: _285  and  _287
REMARK  123  A    between atoms: _287  and  _288
REMARK  124  A    between atoms: _290  and  _292
REMARK  125  A    between atoms: _292  and  _293
REMARK  126  A    between atoms: _292  and  _295
REMARK  127  A    between atoms: _295  and  _296
REMARK  128  A    between atoms: _296  and  _297
REMARK  129  A    between atoms: _300  and  _302
REMARK  130  A    between atoms: _302  and  _303
REMARK  131  A    between atoms: _302  and  _305
REMARK  132  A    between atoms: _308  and  _310
REMARK  133  A    between atoms: _310  and  _311
REMARK  134  A    between atoms: _310  and  _313
REMARK  135  A    between atoms: _313  and  _314
REMARK  136  A    between atoms: _319  and  _320
REMARK  137  A    between atoms: _322  and  _324
REMARK  138  A    between atoms: _324  and  _325
REMARK  139  A    between atoms: _324  and  _327
REMARK  140  A    between atoms: _327  and  _328
REMARK  141  A    between atoms: _331  and  _333
REMARK  142  A    between atoms: _333  and  _334
REMARK  143  A    between atoms: _336  and  _338
REMARK  144  A    between atoms: _338  and  _339
REMARK  145  A    between atoms: _341  and  _343
REMARK  146  A    between atoms: _343  and  _344
REMARK  147  A    between atoms: _343  and  _346
REMARK  148  A    between atoms: _346  and  _347
REMARK  149  A    between atoms: _347  and  _348
REMARK  150  A    between atoms: _351  and  _353
REMARK  151  A    between atoms: _353  and  _354
REMARK  152  A    between atoms: _353  and  _356
REMARK  153  A    between atoms: _356  and  _357
REMARK  154  A    between atoms: _360  and  _362
REMARK  155  A    between atoms: _362  and  _363
REMARK  156  A    between atoms: _362  and  _365
REMARK  157  A    between atoms: _365  and  _366
REMARK  158  A    between atoms: _369  and  _371
REMARK  159  A    between atoms: _371  and  _372
REMARK  160  A    between atoms: _371  and  _374
REMARK  161  A    between atoms: _374  and  _375
REMARK  162  A    between atoms: _380  and  _382
REMARK  163  A    between atoms: _382  and  _383
REMARK  164  A    between atoms: _382  and  _385
REMARK  165  A    between atoms: _385  and  _386
REMARK  166  A    between atoms: _386  and  _387
REMARK  167  A    between atoms: _387  and  _388
REMARK  168  A    between atoms: _388  and  _389
REMARK  169  A    between atoms: _394  and  _395
REMARK  170  A    between atoms: _400  and  _402
REMARK  171  A    between atoms: _402  and  _403
REMARK  172  A    between atoms: _402  and  _405
REMARK  173  A    between atoms: _405  and  _406
REMARK  174  A    between atoms: _406  and  _407
REMARK  175  A    between atoms: _410  and  _412
REMARK  176  A    between atoms: _412  and  _413
REMARK  177  A    between atoms: _412  and  _415
REMARK  178  A    between atoms: _415  and  _416
REMARK  179  A    between atoms: _421  and  _423
REMARK  180  A    between atoms: _423  and  _424
REMARK  181  A    between atoms: _423  and  _426
REMARK  182  A    between atoms: _426  and  _427
REMARK  183  A    between atoms: _430  and  _432
REMARK  184  A    between atoms: _432  and  _433
REMARK  185  A    between atoms: _432  and  _435
REMARK  186  A    between atoms: _435  and  _436
REMARK  187  A    between atoms: _439  and  _441
REMARK  188  A    between atoms: _441  and  _442
REMARK  189  A    between atoms: _441  and  _444
REMARK  190  A    between atoms: _444  and  _445
REMARK  191  A    between atoms: _448  and  _450
REMARK  192  A    between atoms: _450  and  _451
REMARK  193  A    between atoms: _450  and  _453
REMARK  194  A    between atoms: _453  and  _454
REMARK  195  A    between atoms: _454  and  _455
REMARK  196  A    between atoms: _455  and  _456
REMARK  197  A    between atoms: _465  and  _467
REMARK  198  A    between atoms: _467  and  _468
REMARK  199  A    between atoms: _467  and  _470
REMARK  200  A    between atoms: _470  and  _471
REMARK  201  A    between atoms: _474  and  _476
REMARK  202  A    between atoms: _476  and  _477
REMARK  203  A    between atoms: _476  and  _479
REMARK  204  A    between atoms: _479  and  _480
REMARK  205  A    between atoms: _483  and  _485
REMARK  206  A    between atoms: _485  and  _486
REMARK  207  A    between atoms: _485  and  _488
REMARK  208  A    between atoms: _488  and  _489
REMARK  209  A    between atoms: _492  and  _494
REMARK  210  A    between atoms: _494  and  _495
REMARK  211  A    between atoms: _494  and  _497
REMARK  212  A    between atoms: _497  and  _498
REMARK  213  A    between atoms: _504  and  _506
REMARK  214  A    between atoms: _506  and  _507
REMARK  215  A    between atoms: _509  and  _511
REMARK  216  A    between atoms: _511  and  _512
REMARK  217  A    between atoms: _511  and  _514
REMARK  218  A    between atoms: _514  and  _515
REMARK  219  A    between atoms: _518  and  _520
REMARK  220  A    between atoms: _520  and  _521
REMARK  221  A    between atoms: _520  and  _523
REMARK  222  A    between atoms: _523  and  _524
REMARK  223  A    between atoms: _530  and  _532
REMARK  224  A    between atoms: _532  and  _533
REMARK  225  A    between atoms: _532  and  _535
REMARK  226  A    between atoms: _535  and  _536
REMARK  227  A    between atoms: _536  and  _537
REMARK  228  A    between atoms: _537  and  _538
REMARK  229  A    between atoms: _538  and  _539
REMARK  230  A    between atoms: _543  and  _545
REMARK  231  A    between atoms: _545  and  _546
REMARK  232  A    between atoms: _545  and  _548
REMARK  233  A    between atoms: _548  and  _549
REMARK  234  A    between atoms: _549  and  _550
REMARK                            x       y       z     vdW  Elec       q    Type
REMARK                         _______ _______ _______ _____ _____    ______ ____
ROOT
ATOM      1  CB  PHE A   1       8.055  24.497  66.231  0.00  0.00    +0.051 C 
ENDROOT
BRANCH   1   2
ATOM      2  CG  PHE A   1       7.915  23.539  67.364  0.00  0.00    -0.020 A 
ATOM      3  CD2 PHE A   1       7.750  24.006  68.660  0.00  0.00    -0.004 A 
ATOM      4  CE2 PHE A   1       7.617  23.126  69.720  0.00  0.00    -0.000 A 
ATOM      5  CZ  PHE A   1       7.641  21.772  69.484  0.00  0.00    -0.000 A 
ATOM      6  CE1 PHE A   1       7.794  21.290  68.184  0.00  0.00    -0.000 A 
ATOM      7  CD1 PHE A   1       7.925  22.174  67.138  0.00  0.00    -0.004 A 
ENDBRANCH   1   2
BRANCH   1   8
ATOM      8  CA  PHE A   1       6.748  25.191  65.862  0.00  0.00    +0.137 C 
BRANCH   8   9
ATOM      9  N   PHE A   1       5.762  24.191  65.451  0.00  0.00    -0.239 NA
ATOM     10  H   PHE A   1       5.924  23.654  64.575  0.00  0.00    +0.142 HD
ENDBRANCH   8   9
BRANCH   8  11
ATOM     11  C   PHE A   1       7.023  26.262  64.813  0.00  0.00    +0.224 C 
ATOM     12  O   PHE A   1       7.033  25.994  63.611  0.00  0.00    -0.287 OA
ENDBRANCH   8  11
ENDBRANCH   1   8
TORSDOF 4
REMARK  Name = ../refined-set-2016/3t3u/3t3u_pocket.pdb
REMARK  234 active torsions:
REMARK  status: ('A' for Active; 'I' for Inactive)
REMARK    1  A    between atoms: _1  and  _3
REMARK    2  A    between atoms: _3  and  _4
REMARK    3  A    between atoms: _3  and  _6
REMARK    4  A    between atoms: _6  and  _7
REMARK    5  A    between atoms: _7  and  _8
REMARK    6  A    between atoms: _8  and  _9
REMARK    7  A    between atoms: _18  and  _20
REMARK    8  A    between atoms: _20  and  _21
REMARK    9  A    between atoms: _20  and  _23
REMARK   10  A    between atoms: _26  and  _28
REMARK   11  A    between atoms: _28  and  _29
REMARK   12  A    between atoms: _28  and  _31
REMARK   13  A    between atoms: _31  and  _32
REMARK   14  A    between atoms: _35  and  _37
REMARK   15  A    between atoms: _37  and  _38
REMARK   16  A    between atoms: _40  and  _42
REMARK   17  A    between atoms: _42  and  _43
REMARK   18  A    between atoms: _42  and  _45
REMARK   19  A    between atoms: _45  and  _46
REMARK   20  A    between atoms: _46  and  _47
REMARK   21  A    between atoms: _47  and  _48
REMARK   22  A    between atoms: _48  and  _49
REMARK   23  A    between atoms: _53  and  _55
REMARK   24  A    between atoms: _55  and  _56
REMARK   25  A    between atoms: _58  and  _60
REMARK   26  A    between atoms: _60  and  _61
REMARK   27  A    between atoms: _60  and  _63
REMARK   28  A    between atoms: _63  and  _64
REMARK   29  A    between atoms: _66  and  _68
REMARK   30  A    between atoms: _68  and  _69
REMARK   31  A    between atoms: _68  and  _71
REMARK   32  A    between atoms: _71  and  _72
REMARK   33  A    between atoms: _78  and  _80
REMARK   34  A    between atoms: _80  and  _81
REMARK   35  A    between atoms: _83  and  _85
REMARK   36  A    between atoms: _85  and  _86
REMARK   37  A    between atoms: _85  and  _88
REMARK   38  A    between atoms: _88  and  _89
REMARK   39  A    between atoms: _89  and  _90
REMARK   40  A    between atoms: _93  and  _95
REMARK   41  A    between atoms: _95  and  _96
REMARK   42  A    between atoms: _95  and  _98
REMARK   43  A    between atoms: _101  and  _103
REMARK   44  A    between atoms: _103  and  _104
REMARK   45  A    between atoms: _103  and  _106
REMARK   46  A    between atoms: _106  and  _107
REMARK   47  A    between atoms: _110  and  _112
REMARK   48  A    between atoms: _112  and  _113
REMARK   49  A    between atoms: _112  and  _115
REMARK   50  A    between atoms: _115  and  _116
REMARK   51  A    between atoms: _119  and  _121
REMARK   52  A    between atoms: _121  and  _122
REMARK   53  A    between atoms: _121  and  _124
REMARK   54  A    between atoms: _126  and  _128
REMARK   55  A    between atoms: _128  and  _129
REMARK   56  A    between atoms: _132  and  _134
REMARK   57  A    between atoms: _134  and  _135
REMARK   58  A    between atoms: _134  and  _137
REMARK   59  A    between atoms: _140  and  _142
REMARK   60  A    between atoms: _142  and  _143
REMARK   61  A    between atoms: _142  and  _145
REMARK   62  A    between atoms: _145  and  _146
REMARK   63  A    between atoms: _146  and  _147
REMARK   64  A    between atoms: _147  and  _148
REMARK   65  A    between atoms: _148  and  _149
REMARK   66  A    between atoms: _153  and  _155
REMARK   67  A    between atoms: _155  and  _156
REMARK   68  A    between atoms: _155  and  _158
REMARK   69  A    between atoms: _161  and  _163
REMARK   70  A    between atoms: _163  and  _164
REMARK   71  A    between atoms: _163  and  _166
REMARK   72  A    between atoms: _166  and  _167
REMARK   73  A    between atoms: _170  and  _172
REMARK   74  A    between atoms: _172  and  _173
REMARK   75  A    between atoms: _172  and  _175
REMARK   76  A    between atoms: _178  and  _180
REMARK   77  A    between atoms: _180  and  _181
REMARK   78  A    between atoms: _180  and  _183
REMARK   79  A    between atoms: _183  and  _184
REMARK   80  A    between atoms: _187  and  _189
REMARK   81  A    between atoms: _189  and  _190
REMARK   82  A    between atoms: _189  and  _192
REMARK   83  A    between atoms: _192  and  _193
REMARK   84  A    between atoms: _193  and  _194
REMARK   85  A    between atoms: _196  and  _198
REMARK   86  A    between atoms: _198  and  _199
REMARK   87  A    between atoms: _198  and  _201
REMARK   88  A    between atoms: _201  and  _202
REMARK   89  A    between atoms: _202  and  _203
REMARK   90  A    between atoms: _203  and  _204
REMARK   91  A    between atoms: _204  and  _205
REMARK   92  A    between atoms: _209  and  _211
REMARK   93  A    between atoms: _211  and  _212
REMARK   94  A    between atoms: _211  and  _214
REMARK   95  A    between atoms: _214  and  _215
REMARK   96  A    between atoms: _218  and  _220
REMARK   97  A    between atoms: _220  and  _221
REMARK   98  A    between atoms: _220  and  _223
REMARK   99  A    between atoms: _223  and  _224
REMARK  100  A    between atoms: _229  and  _230
REMARK  101  A    between atoms: _232  and  _234
REMARK  102  A    between atoms: _234  and  _235
REMARK  103  A    between atoms: _234  and  _237
REMARK  104  A    between atoms: _237  and  _238
REMARK  105  A    between atoms: _238  and  _239
REMARK  106  A    between atoms: _242  and  _244
REMARK  107  A    between atoms: _244  and  _245
REMARK  108  A    between atoms: _244  and  _247
REMARK  109  A    between atoms: _247  and  _248
REMARK  110  A    between atoms: _254  and  _256
REMARK  111  A    between atoms: _256  and  _257
REMARK  112  A    between atoms: _256  and  _259
REMARK  113  A    between atoms: _259  and  _260
REMARK  114  A    between atoms: _265  and  _266
REMARK  115  A    between atoms: _268  and  _270
REMARK  116  A    between atoms: _270  and  _271
REMARK  117  A    between atoms: _270  and  _273
REMARK  118  A    between atoms: _273  and  _274
REMARK  119  A    between atoms: _277  and  _279
REMARK  120  A    between atoms: _279  and  _280
REMARK  121  A    between atoms: _279  and  _282
REMARK  122  A    between atoms: _285  and  _287
REMARK  123  A    between atoms: _287  and  _288
REMARK  124  A    between atoms: _290  and  _292
REMARK  125  A    between atoms: _292  and  _293
REMARK  126  A    between atoms: _292  and  _295
REMARK  127  A    between atoms: _295  and  _296
REMARK  128  A    between atoms: _296  and  _297
REMARK  129  A    between atoms: _300  and  _302
REMARK  130  A    between atoms: _302  and  _303
REMARK  131  A    between atoms: _302  and  _305
REMARK  132  A    between atoms: _308  and  _310
REMARK  133  A    between atoms: _310  and  _311
REMARK  134  A    between atoms: _310  and  _313
REMARK  135  A    between atoms: _313  and  _314
REMARK  136  A    between atoms: _319  and  _320
REMARK  137  A    between atoms: _322  and  _324
REMARK  138  A    between atoms: _324  and  _325
REMARK  139  A    between atoms: _324  and  _327
REMARK  140  A    between atoms: _327  and  _328
REMARK  141  A    between atoms: _331  and  _333
REMARK  142  A    between atoms: _333  and  _334
REMARK  143  A    between atoms: _336  and  _338
REMARK  144  A    between atoms: _338  and  _339
REMARK  145  A    between atoms: _341  and  _343
REMARK  146  A    between atoms: _343  and  _344
REMARK  147  A    between atoms: _343  and  _346
REMARK  148  A    between atoms: _346  and  _347
REMARK  149  A    between atoms: _347  and  _348
REMARK  150  A    between atoms: _351  and  _353
REMARK  151  A    between atoms: _353  and  _354
REMARK  152  A    between atoms: _353  and  _356
REMARK  153  A    between atoms: _356  and  _357
REMARK  154  A    between atoms: _360  and  _362
REMARK  155  A    between atoms: _362  and  _363
REMARK  156  A    between atoms: _362  and  _365
REMARK  157  A    between atoms: _365  and  _366
REMARK  158  A    between atoms: _369  and  _371
REMARK  159  A    between atoms: _371  and  _372
REMARK  160  A    between atoms: _371  and  _374
REMARK  161  A    between atoms: _374  and  _375
REMARK  162  A    between atoms: _380  and  _382
REMARK  163  A    between atoms: _382  and  _383
REMARK  164  A    between atoms: _382  and  _385
REMARK  165  A    between atoms: _385  and  _386
REMARK  166  A    between atoms: _386  and  _387
REMARK  167  A    between atoms: _387  and  _388
REMARK  168  A    between atoms: _388  and  _389
REMARK  169  A    between atoms: _394  and  _395
REMARK  170  A    between atoms: _400  and  _402
REMARK  171  A    between atoms: _402  and  _403
REMARK  172  A    between atoms: _402  and  _405
REMARK  173  A    between atoms: _405  and  _406
REMARK  174  A    between atoms: _406  and  _407
REMARK  175  A    between atoms: _410  and  _412
REMARK  176  A    between atoms: _412  and  _413
REMARK  177  A    between atoms: _412  and  _415
REMARK  178  A    between atoms: _415  and  _416
REMARK  179  A    between atoms: _421  and  _423
REMARK  180  A    between atoms: _423  and  _424
REMARK  181  A    between atoms: _423  and  _426
REMARK  182  A    between atoms: _426  and  _427
REMARK  183  A    between atoms: _430  and  _432
REMARK  184  A    between atoms: _432  and  _433
REMARK  185  A    between atoms: _432  and  _435
REMARK  186  A    between atoms: _435  and  _436
REMARK  187  A    between atoms: _439  and  _441
REMARK  188  A    between atoms: _441  and  _442
REMARK  189  A    between atoms: _441  and  _444
REMARK  190  A    between atoms: _444  and  _445
REMARK  191  A    between atoms: _448  and  _450
REMARK  192  A    between atoms: _450  and  _451
REMARK  193  A    between atoms: _450  and  _453
REMARK  194  A    between atoms: _453  and  _454
REMARK  195  A    between atoms: _454  and  _455
REMARK  196  A    between atoms: _455  and  _456
REMARK  197  A    between atoms: _465  and  _467
REMARK  198  A    between atoms: _467  and  _468
REMARK  199  A    between atoms: _467  and  _470
REMARK  200  A    between atoms: _470  and  _471
REMARK  201  A    between atoms: _474  and  _476
REMARK  202  A    between atoms: _476  and  _477
REMARK  203  A    between atoms: _476  and  _479
REMARK  204  A    between atoms: _479  and  _480
REMARK  205  A    between atoms: _483  and  _485
REMARK  206  A    between atoms: _485  and  _486
REMARK  207  A    between atoms: _485  and  _488
REMARK  208  A    between atoms: _488  and  _489
REMARK  209  A    between atoms: _492  and  _494
REMARK  210  A    between atoms: _494  and  _495
REMARK  211  A    between atoms: _494  and  _497
REMARK  212  A    between atoms: _497  and  _498
REMARK  213  A    between atoms: _504  and  _506
REMARK  214  A    between atoms: _506  and  _507
REMARK  215  A    between atoms: _509  and  _511
REMARK  216  A    between atoms: _511  and  _512
REMARK  217  A    between atoms: _511  and  _514
REMARK  218  A    between atoms: _514  and  _515
REMARK  219  A    between atoms: _518  and  _520
REMARK  220  A    between atoms: _520  and  _521
REMARK  221  A    between atoms: _520  and  _523
REMARK  222  A    between atoms: _523  and  _524
REMARK  223  A    between atoms: _530  and  _532
REMARK  224  A    between atoms: _532  and  _533
REMARK  225  A    between atoms: _532  and  _535
REMARK  226  A    between atoms: _535  and  _536
REMARK  227  A    between atoms: _536  and  _537
REMARK  228  A    between atoms: _537  and  _538
REMARK  229  A    between atoms: _538  and  _539
REMARK  230  A    between atoms: _543  and  _545
REMARK  231  A    between atoms: _545  and  _546
REMARK  232  A    between atoms: _545  and  _548
REMARK  233  A    between atoms: _548  and  _549
REMARK  234  A    between atoms: _549  and  _550
REMARK                            x       y       z     vdW  Elec       q    Type
REMARK                         _______ _______ _______ _____ _____    ______ ____
ROOT
ATOM      1  CG  LYS A   1      29.046  24.115  53.834  0.00  0.00    -0.000 C 
ENDROOT
BRANCH   1   2
ATOM      2  CB  LYS A   1      29.831  25.448  53.970  0.00  0.00    +0.025 C 
BRANCH   2   3
ATOM      3  CA  LYS A   1      28.943  26.695  54.153  0.00  0.00    +0.133 C 
BRANCH   3   4
ATOM      4  N   LYS A   1      28.285  27.106  52.896  0.00  0.00    -0.239 NA
ATOM      5  H   LYS A   1      28.657  26.758  51.989  0.00  0.00    +0.142 HD
ENDBRANCH   3   4
BRANCH   3   6
ATOM      6  C   LYS A   1      29.766  27.868  54.724  0.00  0.00    +0.224 C 
ATOM      7  O   LYS A   1      29.805  28.092  55.927  0.00  0.00    -0.287 OA
ENDBRANCH   3   6
ENDBRANCH   2   3
ENDBRANCH   1   2
BRANCH   1   8
ATOM      8  CD  LYS A   1      28.383  23.650  55.159  0.00  0.00    -0.024 C 
BRANCH   8   9
ATOM      9  CE  LYS A   1      27.033  22.972  54.923  0.00  0.00    -0.086 C 
BRANCH   9  10
ATOM     10  NZ  LYS A   1      26.300  22.554  56.170  0.00  0.00    +0.380 N 
ATOM     11  HZ1 LYS A   1      26.113  23.391  56.758  0.00  0.00    -0.089 HD
ATOM     12  HZ2 LYS A   1      26.883  21.878  56.703  0.00  0.00    -0.089 HD
ATOM     13  HZ3 LYS A   1      25.399  22.105  55.907  0.00  0.00    -0.089 HD
ENDBRANCH   9  10
ENDBRANCH   8   9
ENDBRANCH   1   8
TORSDOF 7
REMARK  Name = ../refined-set-2016/3t3u/3t3u_pocket.pdb
REMARK  234 active torsions:
REMARK  status: ('A' for Active; 'I' for Inactive)
REMARK    1  A    between atoms: _1  and  _3
REMARK    2  A    between atoms: _3  and  _4
REMARK    3  A    between atoms: _3  and  _6
REMARK    4  A    between atoms: _6  and  _7
REMARK    5  A    between atoms: _7  and  _8
REMARK    6  A    between atoms: _8  and  _9
REMARK    7  A    between atoms: _18  and  _20
REMARK    8  A    between atoms: _20  and  _21
REMARK    9  A    between atoms: _20  and  _23
REMARK   10  A    between atoms: _26  and  _28
REMARK   11  A    between atoms: _28  and  _29
REMARK   12  A    between atoms: _28  and  _31
REMARK   13  A    between atoms: _31  and  _32
REMARK   14  A    between atoms: _35  and  _37
REMARK   15  A    between atoms: _37  and  _38
REMARK   16  A    between atoms: _40  and  _42
REMARK   17  A    between atoms: _42  and  _43
REMARK   18  A    between atoms: _42  and  _45
REMARK   19  A    between atoms: _45  and  _46
REMARK   20  A    between atoms: _46  and  _47
REMARK   21  A    between atoms: _47  and  _48
REMARK   22  A    between atoms: _48  and  _49
REMARK   23  A    between atoms: _53  and  _55
REMARK   24  A    between atoms: _55  and  _56
REMARK   25  A    between atoms: _58  and  _60
REMARK   26  A    between atoms: _60  and  _61
REMARK   27  A    between atoms: _60  and  _63
REMARK   28  A    between atoms: _63  and  _64
REMARK   29  A    between atoms: _66  and  _68
REMARK   30  A    between atoms: _68  and  _69
REMARK   31  A    between atoms: _68  and  _71
REMARK   32  A    between atoms: _71  and  _72
REMARK   33  A    between atoms: _78  and  _80
REMARK   34  A    between atoms: _80  and  _81
REMARK   35  A    between atoms: _83  and  _85
REMARK   36  A    between atoms: _85  and  _86
REMARK   37  A    between atoms: _85  and  _88
REMARK   38  A    between atoms: _88  and  _89
REMARK   39  A    between atoms: _89  and  _90
REMARK   40  A    between atoms: _93  and  _95
REMARK   41  A    between atoms: _95  and  _96
REMARK   42  A    between atoms: _95  and  _98
REMARK   43  A    between atoms: _101  and  _103
REMARK   44  A    between atoms: _103  and  _104
REMARK   45  A    between atoms: _103  and  _106
REMARK   46  A    between atoms: _106  and  _107
REMARK   47  A    between atoms: _110  and  _112
REMARK   48  A    between atoms: _112  and  _113
REMARK   49  A    between atoms: _112  and  _115
REMARK   50  A    between atoms: _115  and  _116
REMARK   51  A    between atoms: _119  and  _121
REMARK   52  A    between atoms: _121  and  _122
REMARK   53  A    between atoms: _121  and  _124
REMARK   54  A    between atoms: _126  and  _128
REMARK   55  A    between atoms: _128  and  _129
REMARK   56  A    between atoms: _132  and  _134
REMARK   57  A    between atoms: _134  and  _135
REMARK   58  A    between atoms: _134  and  _137
REMARK   59  A    between atoms: _140  and  _142
REMARK   60  A    between atoms: _142  and  _143
REMARK   61  A    between atoms: _142  and  _145
REMARK   62  A    between atoms: _145  and  _146
REMARK   63  A    between atoms: _146  and  _147
REMARK   64  A    between atoms: _147  and  _148
REMARK   65  A    between atoms: _148  and  _149
REMARK   66  A    between atoms: _153  and  _155
REMARK   67  A    between atoms: _155  and  _156
REMARK   68  A    between atoms: _155  and  _158
REMARK   69  A    between atoms: _161  and  _163
REMARK   70  A    between atoms: _163  and  _164
REMARK   71  A    between atoms: _163  and  _166
REMARK   72  A    between atoms: _166  and  _167
REMARK   73  A    between atoms: _170  and  _172
REMARK   74  A    between atoms: _172  and  _173
REMARK   75  A    between atoms: _172  and  _175
REMARK   76  A    between atoms: _178  and  _180
REMARK   77  A    between atoms: _180  and  _181
REMARK   78  A    between atoms: _180  and  _183
REMARK   79  A    between atoms: _183  and  _184
REMARK   80  A    between atoms: _187  and  _189
REMARK   81  A    between atoms: _189  and  _190
REMARK   82  A    between atoms: _189  and  _192
REMARK   83  A    between atoms: _192  and  _193
REMARK   84  A    between atoms: _193  and  _194
REMARK   85  A    between atoms: _196  and  _198
REMARK   86  A    between atoms: _198  and  _199
REMARK   87  A    between atoms: _198  and  _201
REMARK   88  A    between atoms: _201  and  _202
REMARK   89  A    between atoms: _202  and  _203
REMARK   90  A    between atoms: _203  and  _204
REMARK   91  A    between atoms: _204  and  _205
REMARK   92  A    between atoms: _209  and  _211
REMARK   93  A    between atoms: _211  and  _212
REMARK   94  A    between atoms: _211  and  _214
REMARK   95  A    between atoms: _214  and  _215
REMARK   96  A    between atoms: _218  and  _220
REMARK   97  A    between atoms: _220  and  _221
REMARK   98  A    between atoms: _220  and  _223
REMARK   99  A    between atoms: _223  and  _224
REMARK  100  A    between atoms: _229  and  _230
REMARK  101  A    between atoms: _232  and  _234
REMARK  102  A    between atoms: _234  and  _235
REMARK  103  A    between atoms: _234  and  _237
REMARK  104  A    between atoms: _237  and  _238
REMARK  105  A    between atoms: _238  and  _239
REMARK  106  A    between atoms: _242  and  _244
REMARK  107  A    between atoms: _244  and  _245
REMARK  108  A    between atoms: _244  and  _247
REMARK  109  A    between atoms: _247  and  _248
REMARK  110  A    between atoms: _254  and  _256
REMARK  111  A    between atoms: _256  and  _257
REMARK  112  A    between atoms: _256  and  _259
REMARK  113  A    between atoms: _259  and  _260
REMARK  114  A    between atoms: _265  and  _266
REMARK  115  A    between atoms: _268  and  _270
REMARK  116  A    between atoms: _270  and  _271
REMARK  117  A    between atoms: _270  and  _273
REMARK  118  A    between atoms: _273  and  _274
REMARK  119  A    between atoms: _277  and  _279
REMARK  120  A    between atoms: _279  and  _280
REMARK  121  A    between atoms: _279  and  _282
REMARK  122  A    between atoms: _285  and  _287
REMARK  123  A    between atoms: _287  and  _288
REMARK  124  A    between atoms: _290  and  _292
REMARK  125  A    between atoms: _292  and  _293
REMARK  126  A    between atoms: _292  and  _295
REMARK  127  A    between atoms: _295  and  _296
REMARK  128  A    between atoms: _296  and  _297
REMARK  129  A    between atoms: _300  and  _302
REMARK  130  A    between atoms: _302  and  _303
REMARK  131  A    between atoms: _302  and  _305
REMARK  132  A    between atoms: _308  and  _310
REMARK  133  A    between atoms: _310  and  _311
REMARK  134  A    between atoms: _310  and  _313
REMARK  135  A    between atoms: _313  and  _314
REMARK  136  A    between atoms: _319  and  _320
REMARK  137  A    between atoms: _322  and  _324
REMARK  138  A    between atoms: _324  and  _325
REMARK  139  A    between atoms: _324  and  _327
REMARK  140  A    between atoms: _327  and  _328
REMARK  141  A    between atoms: _331  and  _333
REMARK  142  A    between atoms: _333  and  _334
REMARK  143  A    between atoms: _336  and  _338
REMARK  144  A    between atoms: _338  and  _339
REMARK  145  A    between atoms: _341  and  _343
REMARK  146  A    between atoms: _343  and  _344
REMARK  147  A    between atoms: _343  and  _346
REMARK  148  A    between atoms: _346  and  _347
REMARK  149  A    between atoms: _347  and  _348
REMARK  150  A    between atoms: _351  and  _353
REMARK  151  A    between atoms: _353  and  _354
REMARK  152  A    between atoms: _353  and  _356
REMARK  153  A    between atoms: _356  and  _357
REMARK  154  A    between atoms: _360  and  _362
REMARK  155  A    between atoms: _362  and  _363
REMARK  156  A    between atoms: _362  and  _365
REMARK  157  A    between atoms: _365  and  _366
REMARK  158  A    between atoms: _369  and  _371
REMARK  159  A    between atoms: _371  and  _372
REMARK  160  A    between atoms: _371  and  _374
REMARK  161  A    between atoms: _374  and  _375
REMARK  162  A    between atoms: _380  and  _382
REMARK  163  A    between atoms: _382  and  _383
REMARK  164  A    between atoms: _382  and  _385
REMARK  165  A    between atoms: _385  and  _386
REMARK  166  A    between atoms: _386  and  _387
REMARK  167  A    between atoms: _387  and  _388
REMARK  168  A    between atoms: _388  and  _389
REMARK  169  A    between atoms: _394  and  _395
REMARK  170  A    between atoms: _400  and  _402
REMARK  171  A    between atoms: _402  and  _403
REMARK  172  A    between atoms: _402  and  _405
REMARK  173  A    between atoms: _405  and  _406
REMARK  174  A    between atoms: _406  and  _407
REMARK  175  A    between atoms: _410  and  _412
REMARK  176  A    between atoms: _412  and  _413
REMARK  177  A    between atoms: _412  and  _415
REMARK  178  A    between atoms: _415  and  _416
REMARK  179  A    between atoms: _421  and  _423
REMARK  180  A    between atoms: _423  and  _424
REMARK  181  A    between atoms: _423  and  _426
REMARK  182  A    between atoms: _426  and  _427
REMARK  183  A    between atoms: _430  and  _432
REMARK  184  A    between atoms: _432  and  _433
REMARK  185  A    between atoms: _432  and  _435
REMARK  186  A    between atoms: _435  and  _436
REMARK  187  A    between atoms: _439  and  _441
REMARK  188  A    between atoms: _441  and  _442
REMARK  189  A    between atoms: _441  and  _444
REMARK  190  A    between atoms: _444  and  _445
REMARK  191  A    between atoms: _448  and  _450
REMARK  192  A    between atoms: _450  and  _451
REMARK  193  A    between atoms: _450  and  _453
REMARK  194  A    between atoms: _453  and  _454
REMARK  195  A    between atoms: _454  and  _455
REMARK  196  A    between atoms: _455  and  _456
REMARK  197  A    between atoms: _465  and  _467
REMARK  198  A    between atoms: _467  and  _468
REMARK  199  A    between atoms: _467  and  _470
REMARK  200  A    between atoms: _470  and  _471
REMARK  201  A    between atoms: _474  and  _476
REMARK  202  A    between atoms: _476  and  _477
REMARK  203  A    between atoms: _476  and  _479
REMARK  204  A    between atoms: _479  and  _480
REMARK  205  A    between atoms: _483  and  _485
REMARK  206  A    between atoms: _485  and  _486
REMARK  207  A    between atoms: _485  and  _488
REMARK  208  A    between atoms: _488  and  _489
REMARK  209  A    between atoms: _492  and  _494
REMARK  210  A    between atoms: _494  and  _495
REMARK  211  A    between atoms: _494  and  _497
REMARK  212  A    between atoms: _497  and  _498
REMARK  213  A    between atoms: _504  and  _506
REMARK  214  A    between atoms: _506  and  _507
REMARK  215  A    between atoms: _509  and  _511
REMARK  216  A    between atoms: _511  and  _512
REMARK  217  A    between atoms: _511  and  _514
REMARK  218  A    between atoms: _514  and  _515
REMARK  219  A    between atoms: _518  and  _520
REMARK  220  A    between atoms: _520  and  _521
REMARK  221  A    between atoms: _520  and  _523
REMARK  222  A    between atoms: _523  and  _524
REMARK  223  A    between atoms: _530  and  _532
REMARK  224  A    between atoms: _532  and  _533
REMARK  225  A    between atoms: _532  and  _535
REMARK  226  A    between atoms: _535  and  _536
REMARK  227  A    between atoms: _536  and  _537
REMARK  228  A    between atoms: _537  and  _538
REMARK  229  A    between atoms: _538  and  _539
REMARK  230  A    between atoms: _543  and  _545
REMARK  231  A    between atoms: _545  and  _546
REMARK  232  A    between atoms: _545  and  _548
REMARK  233  A    between atoms: _548  and  _549
REMARK  234  A    between atoms: _549  and  _550
REMARK                            x       y       z     vdW  Elec       q    Type
REMARK                         _______ _______ _______ _____ _____    ______ ____
ROOT
ATOM      1  CB  GLN A   1      26.357  28.577  57.345  0.00  0.00    +0.035 C 
ENDROOT
BRANCH   1   2
ATOM      2  CA  GLN A   1      26.830  30.030  57.508  0.00  0.00    +0.134 C 
BRANCH   2   3
ATOM      3  N   GLN A   1      27.321  30.541  56.223  0.00  0.00    -0.239 NA
ATOM      4  H   GLN A   1      27.417  29.878  55.428  0.00  0.00    +0.142 HD
ENDBRANCH   2   3
BRANCH   2   5
ATOM      5  C   GLN A   1      27.907  30.115  58.603  0.00  0.00    +0.224 C 
ATOM      6  O   GLN A   1      27.643  30.491  59.738  0.00  0.00    -0.287 OA
ENDBRANCH   2   5
ENDBRANCH   1   2
BRANCH   1   7
ATOM      7  CG  GLN A   1      26.299  27.782  58.642  0.00  0.00    +0.087 C 
BRANCH   7   8
ATOM      8  CD  GLN A   1      25.687  26.395  58.463  0.00  0.00    +0.219 C 
ATOM      9  NE2 GLN A   1      24.503  26.207  59.014  0.00  0.00    -0.329 N 
ATOM     10 HE21 GLN A   1      24.043  26.981  59.534  0.00  0.00    +0.145 HD
ATOM     11 HE22 GLN A   1      24.030  25.285  58.928  0.00  0.00    +0.145 HD
ATOM     12  OE1 GLN A   1      26.277  25.506  57.833  0.00  0.00    -0.275 OA
ENDBRANCH   7   8
ENDBRANCH   1   7
TORSDOF 5
REMARK  Name = ../refined-set-2016/3t3u/3t3u_pocket.pdb
REMARK  234 active torsions:
REMARK  status: ('A' for Active; 'I' for Inactive)
REMARK    1  A    between atoms: _1  and  _3
REMARK    2  A    between atoms: _3  and  _4
REMARK    3  A    between atoms: _3  and  _6
REMARK    4  A    between atoms: _6  and  _7
REMARK    5  A    between atoms: _7  and  _8
REMARK    6  A    between atoms: _8  and  _9
REMARK    7  A    between atoms: _18  and  _20
REMARK    8  A    between atoms: _20  and  _21
REMARK    9  A    between atoms: _20  and  _23
REMARK   10  A    between atoms: _26  and  _28
REMARK   11  A    between atoms: _28  and  _29
REMARK   12  A    between atoms: _28  and  _31
REMARK   13  A    between atoms: _31  and  _32
REMARK   14  A    between atoms: _35  and  _37
REMARK   15  A    between atoms: _37  and  _38
REMARK   16  A    between atoms: _40  and  _42
REMARK   17  A    between atoms: _42  and  _43
REMARK   18  A    between atoms: _42  and  _45
REMARK   19  A    between atoms: _45  and  _46
REMARK   20  A    between atoms: _46  and  _47
REMARK   21  A    between atoms: _47  and  _48
REMARK   22  A    between atoms: _48  and  _49
REMARK   23  A    between atoms: _53  and  _55
REMARK   24  A    between atoms: _55  and  _56
REMARK   25  A    between atoms: _58  and  _60
REMARK   26  A    between atoms: _60  and  _61
REMARK   27  A    between atoms: _60  and  _63
REMARK   28  A    between atoms: _63  and  _64
REMARK   29  A    between atoms: _66  and  _68
REMARK   30  A    between atoms: _68  and  _69
REMARK   31  A    between atoms: _68  and  _71
REMARK   32  A    between atoms: _71  and  _72
REMARK   33  A    between atoms: _78  and  _80
REMARK   34  A    between atoms: _80  and  _81
REMARK   35  A    between atoms: _83  and  _85
REMARK   36  A    between atoms: _85  and  _86
REMARK   37  A    between atoms: _85  and  _88
REMARK   38  A    between atoms: _88  and  _89
REMARK   39  A    between atoms: _89  and  _90
REMARK   40  A    between atoms: _93  and  _95
REMARK   41  A    between atoms: _95  and  _96
REMARK   42  A    between atoms: _95  and  _98
REMARK   43  A    between atoms: _101  and  _103
REMARK   44  A    between atoms: _103  and  _104
REMARK   45  A    between atoms: _103  and  _106
REMARK   46  A    between atoms: _106  and  _107
REMARK   47  A    between atoms: _110  and  _112
REMARK   48  A    between atoms: _112  and  _113
REMARK   49  A    between atoms: _112  and  _115
REMARK   50  A    between atoms: _115  and  _116
REMARK   51  A    between atoms: _119  and  _121
REMARK   52  A    between atoms: _121  and  _122
REMARK   53  A    between atoms: _121  and  _124
REMARK   54  A    between atoms: _126  and  _128
REMARK   55  A    between atoms: _128  and  _129
REMARK   56  A    between atoms: _132  and  _134
REMARK   57  A    between atoms: _134  and  _135
REMARK   58  A    between atoms: _134  and  _137
REMARK   59  A    between atoms: _140  and  _142
REMARK   60  A    between atoms: _142  and  _143
REMARK   61  A    between atoms: _142  and  _145
REMARK   62  A    between atoms: _145  and  _146
REMARK   63  A    between atoms: _146  and  _147
REMARK   64  A    between atoms: _147  and  _148
REMARK   65  A    between atoms: _148  and  _149
REMARK   66  A    between atoms: _153  and  _155
REMARK   67  A    between atoms: _155  and  _156
REMARK   68  A    between atoms: _155  and  _158
REMARK   69  A    between atoms: _161  and  _163
REMARK   70  A    between atoms: _163  and  _164
REMARK   71  A    between atoms: _163  and  _166
REMARK   72  A    between atoms: _166  and  _167
REMARK   73  A    between atoms: _170  and  _172
REMARK   74  A    between atoms: _172  and  _173
REMARK   75  A    between atoms: _172  and  _175
REMARK   76  A    between atoms: _178  and  _180
REMARK   77  A    between atoms: _180  and  _181
REMARK   78  A    between atoms: _180  and  _183
REMARK   79  A    between atoms: _183  and  _184
REMARK   80  A    between atoms: _187  and  _189
REMARK   81  A    between atoms: _189  and  _190
REMARK   82  A    between atoms: _189  and  _192
REMARK   83  A    between atoms: _192  and  _193
REMARK   84  A    between atoms: _193  and  _194
REMARK   85  A    between atoms: _196  and  _198
REMARK   86  A    between atoms: _198  and  _199
REMARK   87  A    between atoms: _198  and  _201
REMARK   88  A    between atoms: _201  and  _202
REMARK   89  A    between atoms: _202  and  _203
REMARK   90  A    between atoms: _203  and  _204
REMARK   91  A    between atoms: _204  and  _205
REMARK   92  A    between atoms: _209  and  _211
REMARK   93  A    between atoms: _211  and  _212
REMARK   94  A    between atoms: _211  and  _214
REMARK   95  A    between atoms: _214  and  _215
REMARK   96  A    between atoms: _218  and  _220
REMARK   97  A    between atoms: _220  and  _221
REMARK   98  A    between atoms: _220  and  _223
REMARK   99  A    between atoms: _223  and  _224
REMARK  100  A    between atoms: _229  and  _230
REMARK  101  A    between atoms: _232  and  _234
REMARK  102  A    between atoms: _234  and  _235
REMARK  103  A    between atoms: _234  and  _237
REMARK  104  A    between atoms: _237  and  _238
REMARK  105  A    between atoms: _238  and  _239
REMARK  106  A    between atoms: _242  and  _244
REMARK  107  A    between atoms: _244  and  _245
REMARK  108  A    between atoms: _244  and  _247
REMARK  109  A    between atoms: _247  and  _248
REMARK  110  A    between atoms: _254  and  _256
REMARK  111  A    between atoms: _256  and  _257
REMARK  112  A    between atoms: _256  and  _259
REMARK  113  A    between atoms: _259  and  _260
REMARK  114  A    between atoms: _265  and  _266
REMARK  115  A    between atoms: _268  and  _270
REMARK  116  A    between atoms: _270  and  _271
REMARK  117  A    between atoms: _270  and  _273
REMARK  118  A    between atoms: _273  and  _274
REMARK  119  A    between atoms: _277  and  _279
REMARK  120  A    between atoms: _279  and  _280
REMARK  121  A    between atoms: _279  and  _282
REMARK  122  A    between atoms: _285  and  _287
REMARK  123  A    between atoms: _287  and  _288
REMARK  124  A    between atoms: _290  and  _292
REMARK  125  A    between atoms: _292  and  _293
REMARK  126  A    between atoms: _292  and  _295
REMARK  127  A    between atoms: _295  and  _296
REMARK  128  A    between atoms: _296  and  _297
REMARK  129  A    between atoms: _300  and  _302
REMARK  130  A    between atoms: _302  and  _303
REMARK  131  A    between atoms: _302  and  _305
REMARK  132  A    between atoms: _308  and  _310
REMARK  133  A    between atoms: _310  and  _311
REMARK  134  A    between atoms: _310  and  _313
REMARK  135  A    between atoms: _313  and  _314
REMARK  136  A    between atoms: _319  and  _320
REMARK  137  A    between atoms: _322  and  _324
REMARK  138  A    between atoms: _324  and  _325
REMARK  139  A    between atoms: _324  and  _327
REMARK  140  A    between atoms: _327  and  _328
REMARK  141  A    between atoms: _331  and  _333
REMARK  142  A    between atoms: _333  and  _334
REMARK  143  A    between atoms: _336  and  _338
REMARK  144  A    between atoms: _338  and  _339
REMARK  145  A    between atoms: _341  and  _343
REMARK  146  A    between atoms: _343  and  _344
REMARK  147  A    between atoms: _343  and  _346
REMARK  148  A    between atoms: _346  and  _347
REMARK  149  A    between atoms: _347  and  _348
REMARK  150  A    between atoms: _351  and  _353
REMARK  151  A    between atoms: _353  and  _354
REMARK  152  A    between atoms: _353  and  _356
REMARK  153  A    between atoms: _356  and  _357
REMARK  154  A    between atoms: _360  and  _362
REMARK  155  A    between atoms: _362  and  _363
REMARK  156  A    between atoms: _362  and  _365
REMARK  157  A    between atoms: _365  and  _366
REMARK  158  A    between atoms: _369  and  _371
REMARK  159  A    between atoms: _371  and  _372
REMARK  160  A    between atoms: _371  and  _374
REMARK  161  A    between atoms: _374  and  _375
REMARK  162  A    between atoms: _380  and  _382
REMARK  163  A    between atoms: _382  and  _383
REMARK  164  A    between atoms: _382  and  _385
REMARK  165  A    between atoms: _385  and  _386
REMARK  166  A    between atoms: _386  and  _387
REMARK  167  A    between atoms: _387  and  _388
REMARK  168  A    between atoms: _388  and  _389
REMARK  169  A    between atoms: _394  and  _395
REMARK  170  A    between atoms: _400  and  _402
REMARK  171  A    between atoms: _402  and  _403
REMARK  172  A    between atoms: _402  and  _405
REMARK  173  A    between atoms: _405  and  _406
REMARK  174  A    between atoms: _406  and  _407
REMARK  175  A    between atoms: _410  and  _412
REMARK  176  A    between atoms: _412  and  _413
REMARK  177  A    between atoms: _412  and  _415
REMARK  178  A    between atoms: _415  and  _416
REMARK  179  A    between atoms: _421  and  _423
REMARK  180  A    between atoms: _423  and  _424
REMARK  181  A    between atoms: _423  and  _426
REMARK  182  A    between atoms: _426  and  _427
REMARK  183  A    between atoms: _430  and  _432
REMARK  184  A    between atoms: _432  and  _433
REMARK  185  A    between atoms: _432  and  _435
REMARK  186  A    between atoms: _435  and  _436
REMARK  187  A    between atoms: _439  and  _441
REMARK  188  A    between atoms: _441  and  _442
REMARK  189  A    between atoms: _441  and  _444
REMARK  190  A    between atoms: _444  and  _445
REMARK  191  A    between atoms: _448  and  _450
REMARK  192  A    between atoms: _450  and  _451
REMARK  193  A    between atoms: _450  and  _453
REMARK  194  A    between atoms: _453  and  _454
REMARK  195  A    between atoms: _454  and  _455
REMARK  196  A    between atoms: _455  and  _456
REMARK  197  A    between atoms: _465  and  _467
REMARK  198  A    between atoms: _467  and  _468
REMARK  199  A    between atoms: _467  and  _470
REMARK  200  A    between atoms: _470  and  _471
REMARK  201  A    between atoms: _474  and  _476
REMARK  202  A    between atoms: _476  and  _477
REMARK  203  A    between atoms: _476  and  _479
REMARK  204  A    between atoms: _479  and  _480
REMARK  205  A    between atoms: _483  and  _485
REMARK  206  A    between atoms: _485  and  _486
REMARK  207  A    between atoms: _485  and  _488
REMARK  208  A    between atoms: _488  and  _489
REMARK  209  A    between atoms: _492  and  _494
REMARK  210  A    between atoms: _494  and  _495
REMARK  211  A    between atoms: _494  and  _497
REMARK  212  A    between atoms: _497  and  _498
REMARK  213  A    between atoms: _504  and  _506
REMARK  214  A    between atoms: _506  and  _507
REMARK  215  A    between atoms: _509  and  _511
REMARK  216  A    between atoms: _511  and  _512
REMARK  217  A    between atoms: _511  and  _514
REMARK  218  A    between atoms: _514  and  _515
REMARK  219  A    between atoms: _518  and  _520
REMARK  220  A    between atoms: _520  and  _521
REMARK  221  A    between atoms: _520  and  _523
REMARK  222  A    between atoms: _523  and  _524
REMARK  223  A    between atoms: _530  and  _532
REMARK  224  A    between atoms: _532  and  _533
REMARK  225  A    between atoms: _532  and  _535
REMARK  226  A    between atoms: _535  and  _536
REMARK  227  A    between atoms: _536  and  _537
REMARK  228  A    between atoms: _537  and  _538
REMARK  229  A    between atoms: _538  and  _539
REMARK  230  A    between atoms: _543  and  _545
REMARK  231  A    between atoms: _545  and  _546
REMARK  232  A    between atoms: _545  and  _548
REMARK  233  A    between atoms: _548  and  _549
REMARK  234  A    between atoms: _549  and  _550
REMARK                            x       y       z     vdW  Elec       q    Type
REMARK                         _______ _______ _______ _____ _____    ______ ____
ROOT
ATOM      1  O   HOH     1      23.061  17.997  52.080  0.00  0.00    +0.000 OA
ENDROOT
TORSDOF 0
REMARK  Name = ../refined-set-2016/3t3u/3t3u_pocket.pdb
REMARK  234 active torsions:
REMARK  status: ('A' for Active; 'I' for Inactive)
REMARK    1  A    between atoms: _1  and  _3
REMARK    2  A    between atoms: _3  and  _4
REMARK    3  A    between atoms: _3  and  _6
REMARK    4  A    between atoms: _6  and  _7
REMARK    5  A    between atoms: _7  and  _8
REMARK    6  A    between atoms: _8  and  _9
REMARK    7  A    between atoms: _18  and  _20
REMARK    8  A    between atoms: _20  and  _21
REMARK    9  A    between atoms: _20  and  _23
REMARK   10  A    between atoms: _26  and  _28
REMARK   11  A    between atoms: _28  and  _29
REMARK   12  A    between atoms: _28  and  _31
REMARK   13  A    between atoms: _31  and  _32
REMARK   14  A    between atoms: _35  and  _37
REMARK   15  A    between atoms: _37  and  _38
REMARK   16  A    between atoms: _40  and  _42
REMARK   17  A    between atoms: _42  and  _43
REMARK   18  A    between atoms: _42  and  _45
REMARK   19  A    between atoms: _45  and  _46
REMARK   20  A    between atoms: _46  and  _47
REMARK   21  A    between atoms: _47  and  _48
REMARK   22  A    between atoms: _48  and  _49
REMARK   23  A    between atoms: _53  and  _55
REMARK   24  A    between atoms: _55  and  _56
REMARK   25  A    between atoms: _58  and  _60
REMARK   26  A    between atoms: _60  and  _61
REMARK   27  A    between atoms: _60  and  _63
REMARK   28  A    between atoms: _63  and  _64
REMARK   29  A    between atoms: _66  and  _68
REMARK   30  A    between atoms: _68  and  _69
REMARK   31  A    between atoms: _68  and  _71
REMARK   32  A    between atoms: _71  and  _72
REMARK   33  A    between atoms: _78  and  _80
REMARK   34  A    between atoms: _80  and  _81
REMARK   35  A    between atoms: _83  and  _85
REMARK   36  A    between atoms: _85  and  _86
REMARK   37  A    between atoms: _85  and  _88
REMARK   38  A    between atoms: _88  and  _89
REMARK   39  A    between atoms: _89  and  _90
REMARK   40  A    between atoms: _93  and  _95
REMARK   41  A    between atoms: _95  and  _96
REMARK   42  A    between atoms: _95  and  _98
REMARK   43  A    between atoms: _101  and  _103
REMARK   44  A    between atoms: _103  and  _104
REMARK   45  A    between atoms: _103  and  _106
REMARK   46  A    between atoms: _106  and  _107
REMARK   47  A    between atoms: _110  and  _112
REMARK   48  A    between atoms: _112  and  _113
REMARK   49  A    between atoms: _112  and  _115
REMARK   50  A    between atoms: _115  and  _116
REMARK   51  A    between atoms: _119  and  _121
REMARK   52  A    between atoms: _121  and  _122
REMARK   53  A    between atoms: _121  and  _124
REMARK   54  A    between atoms: _126  and  _128
REMARK   55  A    between atoms: _128  and  _129
REMARK   56  A    between atoms: _132  and  _134
REMARK   57  A    between atoms: _134  and  _135
REMARK   58  A    between atoms: _134  and  _137
REMARK   59  A    between atoms: _140  and  _142
REMARK   60  A    between atoms: _142  and  _143
REMARK   61  A    between atoms: _142  and  _145
REMARK   62  A    between atoms: _145  and  _146
REMARK   63  A    between atoms: _146  and  _147
REMARK   64  A    between atoms: _147  and  _148
REMARK   65  A    between atoms: _148  and  _149
REMARK   66  A    between atoms: _153  and  _155
REMARK   67  A    between atoms: _155  and  _156
REMARK   68  A    between atoms: _155  and  _158
REMARK   69  A    between atoms: _161  and  _163
REMARK   70  A    between atoms: _163  and  _164
REMARK   71  A    between atoms: _163  and  _166
REMARK   72  A    between atoms: _166  and  _167
REMARK   73  A    between atoms: _170  and  _172
REMARK   74  A    between atoms: _172  and  _173
REMARK   75  A    between atoms: _172  and  _175
REMARK   76  A    between atoms: _178  and  _180
REMARK   77  A    between atoms: _180  and  _181
REMARK   78  A    between atoms: _180  and  _183
REMARK   79  A    between atoms: _183  and  _184
REMARK   80  A    between atoms: _187  and  _189
REMARK   81  A    between atoms: _189  and  _190
REMARK   82  A    between atoms: _189  and  _192
REMARK   83  A    between atoms: _192  and  _193
REMARK   84  A    between atoms: _193  and  _194
REMARK   85  A    between atoms: _196  and  _198
REMARK   86  A    between atoms: _198  and  _199
REMARK   87  A    between atoms: _198  and  _201
REMARK   88  A    between atoms: _201  and  _202
REMARK   89  A    between atoms: _202  and  _203
REMARK   90  A    between atoms: _203  and  _204
REMARK   91  A    between atoms: _204  and  _205
REMARK   92  A    between atoms: _209  and  _211
REMARK   93  A    between atoms: _211  and  _212
REMARK   94  A    between atoms: _211  and  _214
REMARK   95  A    between atoms: _214  and  _215
REMARK   96  A    between atoms: _218  and  _220
REMARK   97  A    between atoms: _220  and  _221
REMARK   98  A    between atoms: _220  and  _223
REMARK   99  A    between atoms: _223  and  _224
REMARK  100  A    between atoms: _229  and  _230
REMARK  101  A    between atoms: _232  and  _234
REMARK  102  A    between atoms: _234  and  _235
REMARK  103  A    between atoms: _234  and  _237
REMARK  104  A    between atoms: _237  and  _238
REMARK  105  A    between atoms: _238  and  _239
REMARK  106  A    between atoms: _242  and  _244
REMARK  107  A    between atoms: _244  and  _245
REMARK  108  A    between atoms: _244  and  _247
REMARK  109  A    between atoms: _247  and  _248
REMARK  110  A    between atoms: _254  and  _256
REMARK  111  A    between atoms: _256  and  _257
REMARK  112  A    between atoms: _256  and  _259
REMARK  113  A    between atoms: _259  and  _260
REMARK  114  A    between atoms: _265  and  _266
REMARK  115  A    between atoms: _268  and  _270
REMARK  116  A    between atoms: _270  and  _271
REMARK  117  A    between atoms: _270  and  _273
REMARK  118  A    between atoms: _273  and  _274
REMARK  119  A    between atoms: _277  and  _279
REMARK  120  A    between atoms: _279  and  _280
REMARK  121  A    between atoms: _279  and  _282
REMARK  122  A    between atoms: _285  and  _287
REMARK  123  A    between atoms: _287  and  _288
REMARK  124  A    between atoms: _290  and  _292
REMARK  125  A    between atoms: _292  and  _293
REMARK  126  A    between atoms: _292  and  _295
REMARK  127  A    between atoms: _295  and  _296
REMARK  128  A    between atoms: _296  and  _297
REMARK  129  A    between atoms: _300  and  _302
REMARK  130  A    between atoms: _302  and  _303
REMARK  131  A    between atoms: _302  and  _305
REMARK  132  A    between atoms: _308  and  _310
REMARK  133  A    between atoms: _310  and  _311
REMARK  134  A    between atoms: _310  and  _313
REMARK  135  A    between atoms: _313  and  _314
REMARK  136  A    between atoms: _319  and  _320
REMARK  137  A    between atoms: _322  and  _324
REMARK  138  A    between atoms: _324  and  _325
REMARK  139  A    between atoms: _324  and  _327
REMARK  140  A    between atoms: _327  and  _328
REMARK  141  A    between atoms: _331  and  _333
REMARK  142  A    between atoms: _333  and  _334
REMARK  143  A    between atoms: _336  and  _338
REMARK  144  A    between atoms: _338  and  _339
REMARK  145  A    between atoms: _341  and  _343
REMARK  146  A    between atoms: _343  and  _344
REMARK  147  A    between atoms: _343  and  _346
REMARK  148  A    between atoms: _346  and  _347
REMARK  149  A    between atoms: _347  and  _348
REMARK  150  A    between atoms: _351  and  _353
REMARK  151  A    between atoms: _353  and  _354
REMARK  152  A    between atoms: _353  and  _356
REMARK  153  A    between atoms: _356  and  _357
REMARK  154  A    between atoms: _360  and  _362
REMARK  155  A    between atoms: _362  and  _363
REMARK  156  A    between atoms: _362  and  _365
REMARK  157  A    between atoms: _365  and  _366
REMARK  158  A    between atoms: _369  and  _371
REMARK  159  A    between atoms: _371  and  _372
REMARK  160  A    between atoms: _371  and  _374
REMARK  161  A    between atoms: _374  and  _375
REMARK  162  A    between atoms: _380  and  _382
REMARK  163  A    between atoms: _382  and  _383
REMARK  164  A    between atoms: _382  and  _385
REMARK  165  A    between atoms: _385  and  _386
REMARK  166  A    between atoms: _386  and  _387
REMARK  167  A    between atoms: _387  and  _388
REMARK  168  A    between atoms: _388  and  _389
REMARK  169  A    between atoms: _394  and  _395
REMARK  170  A    between atoms: _400  and  _402
REMARK  171  A    between atoms: _402  and  _403
REMARK  172  A    between atoms: _402  and  _405
REMARK  173  A    between atoms: _405  and  _406
REMARK  174  A    between atoms: _406  and  _407
REMARK  175  A    between atoms: _410  and  _412
REMARK  176  A    between atoms: _412  and  _413
REMARK  177  A    between atoms: _412  and  _415
REMARK  178  A    between atoms: _415  and  _416
REMARK  179  A    between atoms: _421  and  _423
REMARK  180  A    between atoms: _423  and  _424
REMARK  181  A    between atoms: _423  and  _426
REMARK  182  A    between atoms: _426  and  _427
REMARK  183  A    between atoms: _430  and  _432
REMARK  184  A    between atoms: _432  and  _433
REMARK  185  A    between atoms: _432  and  _435
REMARK  186  A    between atoms: _435  and  _436
REMARK  187  A    between atoms: _439  and  _441
REMARK  188  A    between atoms: _441  and  _442
REMARK  189  A    between atoms: _441  and  _444
REMARK  190  A    between atoms: _444  and  _445
REMARK  191  A    between atoms: _448  and  _450
REMARK  192  A    between atoms: _450  and  _451
REMARK  193  A    between atoms: _450  and  _453
REMARK  194  A    between atoms: _453  and  _454
REMARK  195  A    between atoms: _454  and  _455
REMARK  196  A    between atoms: _455  and  _456
REMARK  197  A    between atoms: _465  and  _467
REMARK  198  A    between atoms: _467  and  _468
REMARK  199  A    between atoms: _467  and  _470
REMARK  200  A    between atoms: _470  and  _471
REMARK  201  A    between atoms: _474  and  _476
REMARK  202  A    between atoms: _476  and  _477
REMARK  203  A    between atoms: _476  and  _479
REMARK  204  A    between atoms: _479  and  _480
REMARK  205  A    between atoms: _483  and  _485
REMARK  206  A    between atoms: _485  and  _486
REMARK  207  A    between atoms: _485  and  _488
REMARK  208  A    between atoms: _488  and  _489
REMARK  209  A    between atoms: _492  and  _494
REMARK  210  A    between atoms: _494  and  _495
REMARK  211  A    between atoms: _494  and  _497
REMARK  212  A    between atoms: _497  and  _498
REMARK  213  A    between atoms: _504  and  _506
REMARK  214  A    between atoms: _506  and  _507
REMARK  215  A    between atoms: _509  and  _511
REMARK  216  A    between atoms: _511  and  _512
REMARK  217  A    between atoms: _511  and  _514
REMARK  218  A    between atoms: _514  and  _515
REMARK  219  A    between atoms: _518  and  _520
REMARK  220  A    between atoms: _520  and  _521
REMARK  221  A    between atoms: _520  and  _523
REMARK  222  A    between atoms: _523  and  _524
REMARK  223  A    between atoms: _530  and  _532
REMARK  224  A    between atoms: _532  and  _533
REMARK  225  A    between atoms: _532  and  _535
REMARK  226  A    between atoms: _535  and  _536
REMARK  227  A    between atoms: _536  and  _537
REMARK  228  A    between atoms: _537  and  _538
REMARK  229  A    between atoms: _538  and  _539
REMARK  230  A    between atoms: _543  and  _545
REMARK  231  A    between atoms: _545  and  _546
REMARK  232  A    between atoms: _545  and  _548
REMARK  233  A    between atoms: _548  and  _549
REMARK  234  A    between atoms: _549  and  _550
REMARK                            x       y       z     vdW  Elec       q    Type
REMARK                         _______ _______ _______ _____ _____    ______ ____
ROOT
ATOM      1  O   HOH     1      11.976  13.312  59.468  0.00  0.00    +0.000 OA
ENDROOT
TORSDOF 0
REMARK  Name = ../refined-set-2016/3t3u/3t3u_pocket.pdb
REMARK  234 active torsions:
REMARK  status: ('A' for Active; 'I' for Inactive)
REMARK    1  A    between atoms: _1  and  _3
REMARK    2  A    between atoms: _3  and  _4
REMARK    3  A    between atoms: _3  and  _6
REMARK    4  A    between atoms: _6  and  _7
REMARK    5  A    between atoms: _7  and  _8
REMARK    6  A    between atoms: _8  and  _9
REMARK    7  A    between atoms: _18  and  _20
REMARK    8  A    between atoms: _20  and  _21
REMARK    9  A    between atoms: _20  and  _23
REMARK   10  A    between atoms: _26  and  _28
REMARK   11  A    between atoms: _28  and  _29
REMARK   12  A    between atoms: _28  and  _31
REMARK   13  A    between atoms: _31  and  _32
REMARK   14  A    between atoms: _35  and  _37
REMARK   15  A    between atoms: _37  and  _38
REMARK   16  A    between atoms: _40  and  _42
REMARK   17  A    between atoms: _42  and  _43
REMARK   18  A    between atoms: _42  and  _45
REMARK   19  A    between atoms: _45  and  _46
REMARK   20  A    between atoms: _46  and  _47
REMARK   21  A    between atoms: _47  and  _48
REMARK   22  A    between atoms: _48  and  _49
REMARK   23  A    between atoms: _53  and  _55
REMARK   24  A    between atoms: _55  and  _56
REMARK   25  A    between atoms: _58  and  _60
REMARK   26  A    between atoms: _60  and  _61
REMARK   27  A    between atoms: _60  and  _63
REMARK   28  A    between atoms: _63  and  _64
REMARK   29  A    between atoms: _66  and  _68
REMARK   30  A    between atoms: _68  and  _69
REMARK   31  A    between atoms: _68  and  _71
REMARK   32  A    between atoms: _71  and  _72
REMARK   33  A    between atoms: _78  and  _80
REMARK   34  A    between atoms: _80  and  _81
REMARK   35  A    between atoms: _83  and  _85
REMARK   36  A    between atoms: _85  and  _86
REMARK   37  A    between atoms: _85  and  _88
REMARK   38  A    between atoms: _88  and  _89
REMARK   39  A    between atoms: _89  and  _90
REMARK   40  A    between atoms: _93  and  _95
REMARK   41  A    between atoms: _95  and  _96
REMARK   42  A    between atoms: _95  and  _98
REMARK   43  A    between atoms: _101  and  _103
REMARK   44  A    between atoms: _103  and  _104
REMARK   45  A    between atoms: _103  and  _106
REMARK   46  A    between atoms: _106  and  _107
REMARK   47  A    between atoms: _110  and  _112
REMARK   48  A    between atoms: _112  and  _113
REMARK   49  A    between atoms: _112  and  _115
REMARK   50  A    between atoms: _115  and  _116
REMARK   51  A    between atoms: _119  and  _121
REMARK   52  A    between atoms: _121  and  _122
REMARK   53  A    between atoms: _121  and  _124
REMARK   54  A    between atoms: _126  and  _128
REMARK   55  A    between atoms: _128  and  _129
REMARK   56  A    between atoms: _132  and  _134
REMARK   57  A    between atoms: _134  and  _135
REMARK   58  A    between atoms: _134  and  _137
REMARK   59  A    between atoms: _140  and  _142
REMARK   60  A    between atoms: _142  and  _143
REMARK   61  A    between atoms: _142  and  _145
REMARK   62  A    between atoms: _145  and  _146
REMARK   63  A    between atoms: _146  and  _147
REMARK   64  A    between atoms: _147  and  _148
REMARK   65  A    between atoms: _148  and  _149
REMARK   66  A    between atoms: _153  and  _155
REMARK   67  A    between atoms: _155  and  _156
REMARK   68  A    between atoms: _155  and  _158
REMARK   69  A    between atoms: _161  and  _163
REMARK   70  A    between atoms: _163  and  _164
REMARK   71  A    between atoms: _163  and  _166
REMARK   72  A    between atoms: _166  and  _167
REMARK   73  A    between atoms: _170  and  _172
REMARK   74  A    between atoms: _172  and  _173
REMARK   75  A    between atoms: _172  and  _175
REMARK   76  A    between atoms: _178  and  _180
REMARK   77  A    between atoms: _180  and  _181
REMARK   78  A    between atoms: _180  and  _183
REMARK   79  A    between atoms: _183  and  _184
REMARK   80  A    between atoms: _187  and  _189
REMARK   81  A    between atoms: _189  and  _190
REMARK   82  A    between atoms: _189  and  _192
REMARK   83  A    between atoms: _192  and  _193
REMARK   84  A    between atoms: _193  and  _194
REMARK   85  A    between atoms: _196  and  _198
REMARK   86  A    between atoms: _198  and  _199
REMARK   87  A    between atoms: _198  and  _201
REMARK   88  A    between atoms: _201  and  _202
REMARK   89  A    between atoms: _202  and  _203
REMARK   90  A    between atoms: _203  and  _204
REMARK   91  A    between atoms: _204  and  _205
REMARK   92  A    between atoms: _209  and  _211
REMARK   93  A    between atoms: _211  and  _212
REMARK   94  A    between atoms: _211  and  _214
REMARK   95  A    between atoms: _214  and  _215
REMARK   96  A    between atoms: _218  and  _220
REMARK   97  A    between atoms: _220  and  _221
REMARK   98  A    between atoms: _220  and  _223
REMARK   99  A    between atoms: _223  and  _224
REMARK  100  A    between atoms: _229  and  _230
REMARK  101  A    between atoms: _232  and  _234
REMARK  102  A    between atoms: _234  and  _235
REMARK  103  A    between atoms: _234  and  _237
REMARK  104  A    between atoms: _237  and  _238
REMARK  105  A    between atoms: _238  and  _239
REMARK  106  A    between atoms: _242  and  _244
REMARK  107  A    between atoms: _244  and  _245
REMARK  108  A    between atoms: _244  and  _247
REMARK  109  A    between atoms: _247  and  _248
REMARK  110  A    between atoms: _254  and  _256
REMARK  111  A    between atoms: _256  and  _257
REMARK  112  A    between atoms: _256  and  _259
REMARK  113  A    between atoms: _259  and  _260
REMARK  114  A    between atoms: _265  and  _266
REMARK  115  A    between atoms: _268  and  _270
REMARK  116  A    between atoms: _270  and  _271
REMARK  117  A    between atoms: _270  and  _273
REMARK  118  A    between atoms: _273  and  _274
REMARK  119  A    between atoms: _277  and  _279
REMARK  120  A    between atoms: _279  and  _280
REMARK  121  A    between atoms: _279  and  _282
REMARK  122  A    between atoms: _285  and  _287
REMARK  123  A    between atoms: _287  and  _288
REMARK  124  A    between atoms: _290  and  _292
REMARK  125  A    between atoms: _292  and  _293
REMARK  126  A    between atoms: _292  and  _295
REMARK  127  A    between atoms: _295  and  _296
REMARK  128  A    between atoms: _296  and  _297
REMARK  129  A    between atoms: _300  and  _302
REMARK  130  A    between atoms: _302  and  _303
REMARK  131  A    between atoms: _302  and  _305
REMARK  132  A    between atoms: _308  and  _310
REMARK  133  A    between atoms: _310  and  _311
REMARK  134  A    between atoms: _310  and  _313
REMARK  135  A    between atoms: _313  and  _314
REMARK  136  A    between atoms: _319  and  _320
REMARK  137  A    between atoms: _322  and  _324
REMARK  138  A    between atoms: _324  and  _325
REMARK  139  A    between atoms: _324  and  _327
REMARK  140  A    between atoms: _327  and  _328
REMARK  141  A    between atoms: _331  and  _333
REMARK  142  A    between atoms: _333  and  _334
REMARK  143  A    between atoms: _336  and  _338
REMARK  144  A    between atoms: _338  and  _339
REMARK  145  A    between atoms: _341  and  _343
REMARK  146  A    between atoms: _343  and  _344
REMARK  147  A    between atoms: _343  and  _346
REMARK  148  A    between atoms: _346  and  _347
REMARK  149  A    between atoms: _347  and  _348
REMARK  150  A    between atoms: _351  and  _353
REMARK  151  A    between atoms: _353  and  _354
REMARK  152  A    between atoms: _353  and  _356
REMARK  153  A    between atoms: _356  and  _357
REMARK  154  A    between atoms: _360  and  _362
REMARK  155  A    between atoms: _362  and  _363
REMARK  156  A    between atoms: _362  and  _365
REMARK  157  A    between atoms: _365  and  _366
REMARK  158  A    between atoms: _369  and  _371
REMARK  159  A    between atoms: _371  and  _372
REMARK  160  A    between atoms: _371  and  _374
REMARK  161  A    between atoms: _374  and  _375
REMARK  162  A    between atoms: _380  and  _382
REMARK  163  A    between atoms: _382  and  _383
REMARK  164  A    between atoms: _382  and  _385
REMARK  165  A    between atoms: _385  and  _386
REMARK  166  A    between atoms: _386  and  _387
REMARK  167  A    between atoms: _387  and  _388
REMARK  168  A    between atoms: _388  and  _389
REMARK  169  A    between atoms: _394  and  _395
REMARK  170  A    between atoms: _400  and  _402
REMARK  171  A    between atoms: _402  and  _403
REMARK  172  A    between atoms: _402  and  _405
REMARK  173  A    between atoms: _405  and  _406
REMARK  174  A    between atoms: _406  and  _407
REMARK  175  A    between atoms: _410  and  _412
REMARK  176  A    between atoms: _412  and  _413
REMARK  177  A    between atoms: _412  and  _415
REMARK  178  A    between atoms: _415  and  _416
REMARK  179  A    between atoms: _421  and  _423
REMARK  180  A    between atoms: _423  and  _424
REMARK  181  A    between atoms: _423  and  _426
REMARK  182  A    between atoms: _426  and  _427
REMARK  183  A    between atoms: _430  and  _432
REMARK  184  A    between atoms: _432  and  _433
REMARK  185  A    between atoms: _432  and  _435
REMARK  186  A    between atoms: _435  and  _436
REMARK  187  A    between atoms: _439  and  _441
REMARK  188  A    between atoms: _441  and  _442
REMARK  189  A    between atoms: _441  and  _444
REMARK  190  A    between atoms: _444  and  _445
REMARK  191  A    between atoms: _448  and  _450
REMARK  192  A    between atoms: _450  and  _451
REMARK  193  A    between atoms: _450  and  _453
REMARK  194  A    between atoms: _453  and  _454
REMARK  195  A    between atoms: _454  and  _455
REMARK  196  A    between atoms: _455  and  _456
REMARK  197  A    between atoms: _465  and  _467
REMARK  198  A    between atoms: _467  and  _468
REMARK  199  A    between atoms: _467  and  _470
REMARK  200  A    between atoms: _470  and  _471
REMARK  201  A    between atoms: _474  and  _476
REMARK  202  A    between atoms: _476  and  _477
REMARK  203  A    between atoms: _476  and  _479
REMARK  204  A    between atoms: _479  and  _480
REMARK  205  A    between atoms: _483  and  _485
REMARK  206  A    between atoms: _485  and  _486
REMARK  207  A    between atoms: _485  and  _488
REMARK  208  A    between atoms: _488  and  _489
REMARK  209  A    between atoms: _492  and  _494
REMARK  210  A    between atoms: _494  and  _495
REMARK  211  A    between atoms: _494  and  _497
REMARK  212  A    between atoms: _497  and  _498
REMARK  213  A    between atoms: _504  and  _506
REMARK  214  A    between atoms: _506  and  _507
REMARK  215  A    between atoms: _509  and  _511
REMARK  216  A    between atoms: _511  and  _512
REMARK  217  A    between atoms: _511  and  _514
REMARK  218  A    between atoms: _514  and  _515
REMARK  219  A    between atoms: _518  and  _520
REMARK  220  A    between atoms: _520  and  _521
REMARK  221  A    between atoms: _520  and  _523
REMARK  222  A    between atoms: _523  and  _524
REMARK  223  A    between atoms: _530  and  _532
REMARK  224  A    between atoms: _532  and  _533
REMARK  225  A    between atoms: _532  and  _535
REMARK  226  A    between atoms: _535  and  _536
REMARK  227  A    between atoms: _536  and  _537
REMARK  228  A    between atoms: _537  and  _538
REMARK  229  A    between atoms: _538  and  _539
REMARK  230  A    between atoms: _543  and  _545
REMARK  231  A    between atoms: _545  and  _546
REMARK  232  A    between atoms: _545  and  _548
REMARK  233  A    between atoms: _548  and  _549
REMARK  234  A    between atoms: _549  and  _550
REMARK                            x       y       z     vdW  Elec       q    Type
REMARK                         _______ _______ _______ _____ _____    ______ ____
ROOT
ATOM      1  O   HOH     1      13.422  14.208  62.312  0.00  0.00    +0.000 OA
ENDROOT
TORSDOF 0
REMARK  Name = ../refined-set-2016/3t3u/3t3u_pocket.pdb
REMARK  234 active torsions:
REMARK  status: ('A' for Active; 'I' for Inactive)
REMARK    1  A    between atoms: _1  and  _3
REMARK    2  A    between atoms: _3  and  _4
REMARK    3  A    between atoms: _3  and  _6
REMARK    4  A    between atoms: _6  and  _7
REMARK    5  A    between atoms: _7  and  _8
REMARK    6  A    between atoms: _8  and  _9
REMARK    7  A    between atoms: _18  and  _20
REMARK    8  A    between atoms: _20  and  _21
REMARK    9  A    between atoms: _20  and  _23
REMARK   10  A    between atoms: _26  and  _28
REMARK   11  A    between atoms: _28  and  _29
REMARK   12  A    between atoms: _28  and  _31
REMARK   13  A    between atoms: _31  and  _32
REMARK   14  A    between atoms: _35  and  _37
REMARK   15  A    between atoms: _37  and  _38
REMARK   16  A    between atoms: _40  and  _42
REMARK   17  A    between atoms: _42  and  _43
REMARK   18  A    between atoms: _42  and  _45
REMARK   19  A    between atoms: _45  and  _46
REMARK   20  A    between atoms: _46  and  _47
REMARK   21  A    between atoms: _47  and  _48
REMARK   22  A    between atoms: _48  and  _49
REMARK   23  A    between atoms: _53  and  _55
REMARK   24  A    between atoms: _55  and  _56
REMARK   25  A    between atoms: _58  and  _60
REMARK   26  A    between atoms: _60  and  _61
REMARK   27  A    between atoms: _60  and  _63
REMARK   28  A    between atoms: _63  and  _64
REMARK   29  A    between atoms: _66  and  _68
REMARK   30  A    between atoms: _68  and  _69
REMARK   31  A    between atoms: _68  and  _71
REMARK   32  A    between atoms: _71  and  _72
REMARK   33  A    between atoms: _78  and  _80
REMARK   34  A    between atoms: _80  and  _81
REMARK   35  A    between atoms: _83  and  _85
REMARK   36  A    between atoms: _85  and  _86
REMARK   37  A    between atoms: _85  and  _88
REMARK   38  A    between atoms: _88  and  _89
REMARK   39  A    between atoms: _89  and  _90
REMARK   40  A    between atoms: _93  and  _95
REMARK   41  A    between atoms: _95  and  _96
REMARK   42  A    between atoms: _95  and  _98
REMARK   43  A    between atoms: _101  and  _103
REMARK   44  A    between atoms: _103  and  _104
REMARK   45  A    between atoms: _103  and  _106
REMARK   46  A    between atoms: _106  and  _107
REMARK   47  A    between atoms: _110  and  _112
REMARK   48  A    between atoms: _112  and  _113
REMARK   49  A    between atoms: _112  and  _115
REMARK   50  A    between atoms: _115  and  _116
REMARK   51  A    between atoms: _119  and  _121
REMARK   52  A    between atoms: _121  and  _122
REMARK   53  A    between atoms: _121  and  _124
REMARK   54  A    between atoms: _126  and  _128
REMARK   55  A    between atoms: _128  and  _129
REMARK   56  A    between atoms: _132  and  _134
REMARK   57  A    between atoms: _134  and  _135
REMARK   58  A    between atoms: _134  and  _137
REMARK   59  A    between atoms: _140  and  _142
REMARK   60  A    between atoms: _142  and  _143
REMARK   61  A    between atoms: _142  and  _145
REMARK   62  A    between atoms: _145  and  _146
REMARK   63  A    between atoms: _146  and  _147
REMARK   64  A    between atoms: _147  and  _148
REMARK   65  A    between atoms: _148  and  _149
REMARK   66  A    between atoms: _153  and  _155
REMARK   67  A    between atoms: _155  and  _156
REMARK   68  A    between atoms: _155  and  _158
REMARK   69  A    between atoms: _161  and  _163
REMARK   70  A    between atoms: _163  and  _164
REMARK   71  A    between atoms: _163  and  _166
REMARK   72  A    between atoms: _166  and  _167
REMARK   73  A    between atoms: _170  and  _172
REMARK   74  A    between atoms: _172  and  _173
REMARK   75  A    between atoms: _172  and  _175
REMARK   76  A    between atoms: _178  and  _180
REMARK   77  A    between atoms: _180  and  _181
REMARK   78  A    between atoms: _180  and  _183
REMARK   79  A    between atoms: _183  and  _184
REMARK   80  A    between atoms: _187  and  _189
REMARK   81  A    between atoms: _189  and  _190
REMARK   82  A    between atoms: _189  and  _192
REMARK   83  A    between atoms: _192  and  _193
REMARK   84  A    between atoms: _193  and  _194
REMARK   85  A    between atoms: _196  and  _198
REMARK   86  A    between atoms: _198  and  _199
REMARK   87  A    between atoms: _198  and  _201
REMARK   88  A    between atoms: _201  and  _202
REMARK   89  A    between atoms: _202  and  _203
REMARK   90  A    between atoms: _203  and  _204
REMARK   91  A    between atoms: _204  and  _205
REMARK   92  A    between atoms: _209  and  _211
REMARK   93  A    between atoms: _211  and  _212
REMARK   94  A    between atoms: _211  and  _214
REMARK   95  A    between atoms: _214  and  _215
REMARK   96  A    between atoms: _218  and  _220
REMARK   97  A    between atoms: _220  and  _221
REMARK   98  A    between atoms: _220  and  _223
REMARK   99  A    between atoms: _223  and  _224
REMARK  100  A    between atoms: _229  and  _230
REMARK  101  A    between atoms: _232  and  _234
REMARK  102  A    between atoms: _234  and  _235
REMARK  103  A    between atoms: _234  and  _237
REMARK  104  A    between atoms: _237  and  _238
REMARK  105  A    between atoms: _238  and  _239
REMARK  106  A    between atoms: _242  and  _244
REMARK  107  A    between atoms: _244  and  _245
REMARK  108  A    between atoms: _244  and  _247
REMARK  109  A    between atoms: _247  and  _248
REMARK  110  A    between atoms: _254  and  _256
REMARK  111  A    between atoms: _256  and  _257
REMARK  112  A    between atoms: _256  and  _259
REMARK  113  A    between atoms: _259  and  _260
REMARK  114  A    between atoms: _265  and  _266
REMARK  115  A    between atoms: _268  and  _270
REMARK  116  A    between atoms: _270  and  _271
REMARK  117  A    between atoms: _270  and  _273
REMARK  118  A    between atoms: _273  and  _274
REMARK  119  A    between atoms: _277  and  _279
REMARK  120  A    between atoms: _279  and  _280
REMARK  121  A    between atoms: _279  and  _282
REMARK  122  A    between atoms: _285  and  _287
REMARK  123  A    between atoms: _287  and  _288
REMARK  124  A    between atoms: _290  and  _292
REMARK  125  A    between atoms: _292  and  _293
REMARK  126  A    between atoms: _292  and  _295
REMARK  127  A    between atoms: _295  and  _296
REMARK  128  A    between atoms: _296  and  _297
REMARK  129  A    between atoms: _300  and  _302
REMARK  130  A    between atoms: _302  and  _303
REMARK  131  A    between atoms: _302  and  _305
REMARK  132  A    between atoms: _308  and  _310
REMARK  133  A    between atoms: _310  and  _311
REMARK  134  A    between atoms: _310  and  _313
REMARK  135  A    between atoms: _313  and  _314
REMARK  136  A    between atoms: _319  and  _320
REMARK  137  A    between atoms: _322  and  _324
REMARK  138  A    between atoms: _324  and  _325
REMARK  139  A    between atoms: _324  and  _327
REMARK  140  A    between atoms: _327  and  _328
REMARK  141  A    between atoms: _331  and  _333
REMARK  142  A    between atoms: _333  and  _334
REMARK  143  A    between atoms: _336  and  _338
REMARK  144  A    between atoms: _338  and  _339
REMARK  145  A    between atoms: _341  and  _343
REMARK  146  A    between atoms: _343  and  _344
REMARK  147  A    between atoms: _343  and  _346
REMARK  148  A    between atoms: _346  and  _347
REMARK  149  A    between atoms: _347  and  _348
REMARK  150  A    between atoms: _351  and  _353
REMARK  151  A    between atoms: _353  and  _354
REMARK  152  A    between atoms: _353  and  _356
REMARK  153  A    between atoms: _356  and  _357
REMARK  154  A    between atoms: _360  and  _362
REMARK  155  A    between atoms: _362  and  _363
REMARK  156  A    between atoms: _362  and  _365
REMARK  157  A    between atoms: _365  and  _366
REMARK  158  A    between atoms: _369  and  _371
REMARK  159  A    between atoms: _371  and  _372
REMARK  160  A    between atoms: _371  and  _374
REMARK  161  A    between atoms: _374  and  _375
REMARK  162  A    between atoms: _380  and  _382
REMARK  163  A    between atoms: _382  and  _383
REMARK  164  A    between atoms: _382  and  _385
REMARK  165  A    between atoms: _385  and  _386
REMARK  166  A    between atoms: _386  and  _387
REMARK  167  A    between atoms: _387  and  _388
REMARK  168  A    between atoms: _388  and  _389
REMARK  169  A    between atoms: _394  and  _395
REMARK  170  A    between atoms: _400  and  _402
REMARK  171  A    between atoms: _402  and  _403
REMARK  172  A    between atoms: _402  and  _405
REMARK  173  A    between atoms: _405  and  _406
REMARK  174  A    between atoms: _406  and  _407
REMARK  175  A    between atoms: _410  and  _412
REMARK  176  A    between atoms: _412  and  _413
REMARK  177  A    between atoms: _412  and  _415
REMARK  178  A    between atoms: _415  and  _416
REMARK  179  A    between atoms: _421  and  _423
REMARK  180  A    between atoms: _423  and  _424
REMARK  181  A    between atoms: _423  and  _426
REMARK  182  A    between atoms: _426  and  _427
REMARK  183  A    between atoms: _430  and  _432
REMARK  184  A    between atoms: _432  and  _433
REMARK  185  A    between atoms: _432  and  _435
REMARK  186  A    between atoms: _435  and  _436
REMARK  187  A    between atoms: _439  and  _441
REMARK  188  A    between atoms: _441  and  _442
REMARK  189  A    between atoms: _441  and  _444
REMARK  190  A    between atoms: _444  and  _445
REMARK  191  A    between atoms: _448  and  _450
REMARK  192  A    between atoms: _450  and  _451
REMARK  193  A    between atoms: _450  and  _453
REMARK  194  A    between atoms: _453  and  _454
REMARK  195  A    between atoms: _454  and  _455
REMARK  196  A    between atoms: _455  and  _456
REMARK  197  A    between atoms: _465  and  _467
REMARK  198  A    between atoms: _467  and  _468
REMARK  199  A    between atoms: _467  and  _470
REMARK  200  A    between atoms: _470  and  _471
REMARK  201  A    between atoms: _474  and  _476
REMARK  202  A    between atoms: _476  and  _477
REMARK  203  A    between atoms: _476  and  _479
REMARK  204  A    between atoms: _479  and  _480
REMARK  205  A    between atoms: _483  and  _485
REMARK  206  A    between atoms: _485  and  _486
REMARK  207  A    between atoms: _485  and  _488
REMARK  208  A    between atoms: _488  and  _489
REMARK  209  A    between atoms: _492  and  _494
REMARK  210  A    between atoms: _494  and  _495
REMARK  211  A    between atoms: _494  and  _497
REMARK  212  A    between atoms: _497  and  _498
REMARK  213  A    between atoms: _504  and  _506
REMARK  214  A    between atoms: _506  and  _507
REMARK  215  A    between atoms: _509  and  _511
REMARK  216  A    between atoms: _511  and  _512
REMARK  217  A    between atoms: _511  and  _514
REMARK  218  A    between atoms: _514  and  _515
REMARK  219  A    between atoms: _518  and  _520
REMARK  220  A    between atoms: _520  and  _521
REMARK  221  A    between atoms: _520  and  _523
REMARK  222  A    between atoms: _523  and  _524
REMARK  223  A    between atoms: _530  and  _532
REMARK  224  A    between atoms: _532  and  _533
REMARK  225  A    between atoms: _532  and  _535
REMARK  226  A    between atoms: _535  and  _536
REMARK  227  A    between atoms: _536  and  _537
REMARK  228  A    between atoms: _537  and  _538
REMARK  229  A    between atoms: _538  and  _539
REMARK  230  A    between atoms: _543  and  _545
REMARK  231  A    between atoms: _545  and  _546
REMARK  232  A    between atoms: _545  and  _548
REMARK  233  A    between atoms: _548  and  _549
REMARK  234  A    between atoms: _549  and  _550
REMARK                            x       y       z     vdW  Elec       q    Type
REMARK                         _______ _______ _______ _____ _____    ______ ____
ROOT
ATOM      1  O   HOH     1      14.244  21.775  59.043  0.00  0.00    +0.000 OA
ENDROOT
TORSDOF 0
REMARK  Name = ../refined-set-2016/3t3u/3t3u_pocket.pdb
REMARK  234 active torsions:
REMARK  status: ('A' for Active; 'I' for Inactive)
REMARK    1  A    between atoms: _1  and  _3
REMARK    2  A    between atoms: _3  and  _4
REMARK    3  A    between atoms: _3  and  _6
REMARK    4  A    between atoms: _6  and  _7
REMARK    5  A    between atoms: _7  and  _8
REMARK    6  A    between atoms: _8  and  _9
REMARK    7  A    between atoms: _18  and  _20
REMARK    8  A    between atoms: _20  and  _21
REMARK    9  A    between atoms: _20  and  _23
REMARK   10  A    between atoms: _26  and  _28
REMARK   11  A    between atoms: _28  and  _29
REMARK   12  A    between atoms: _28  and  _31
REMARK   13  A    between atoms: _31  and  _32
REMARK   14  A    between atoms: _35  and  _37
REMARK   15  A    between atoms: _37  and  _38
REMARK   16  A    between atoms: _40  and  _42
REMARK   17  A    between atoms: _42  and  _43
REMARK   18  A    between atoms: _42  and  _45
REMARK   19  A    between atoms: _45  and  _46
REMARK   20  A    between atoms: _46  and  _47
REMARK   21  A    between atoms: _47  and  _48
REMARK   22  A    between atoms: _48  and  _49
REMARK   23  A    between atoms: _53  and  _55
REMARK   24  A    between atoms: _55  and  _56
REMARK   25  A    between atoms: _58  and  _60
REMARK   26  A    between atoms: _60  and  _61
REMARK   27  A    between atoms: _60  and  _63
REMARK   28  A    between atoms: _63  and  _64
REMARK   29  A    between atoms: _66  and  _68
REMARK   30  A    between atoms: _68  and  _69
REMARK   31  A    between atoms: _68  and  _71
REMARK   32  A    between atoms: _71  and  _72
REMARK   33  A    between atoms: _78  and  _80
REMARK   34  A    between atoms: _80  and  _81
REMARK   35  A    between atoms: _83  and  _85
REMARK   36  A    between atoms: _85  and  _86
REMARK   37  A    between atoms: _85  and  _88
REMARK   38  A    between atoms: _88  and  _89
REMARK   39  A    between atoms: _89  and  _90
REMARK   40  A    between atoms: _93  and  _95
REMARK   41  A    between atoms: _95  and  _96
REMARK   42  A    between atoms: _95  and  _98
REMARK   43  A    between atoms: _101  and  _103
REMARK   44  A    between atoms: _103  and  _104
REMARK   45  A    between atoms: _103  and  _106
REMARK   46  A    between atoms: _106  and  _107
REMARK   47  A    between atoms: _110  and  _112
REMARK   48  A    between atoms: _112  and  _113
REMARK   49  A    between atoms: _112  and  _115
REMARK   50  A    between atoms: _115  and  _116
REMARK   51  A    between atoms: _119  and  _121
REMARK   52  A    between atoms: _121  and  _122
REMARK   53  A    between atoms: _121  and  _124
REMARK   54  A    between atoms: _126  and  _128
REMARK   55  A    between atoms: _128  and  _129
REMARK   56  A    between atoms: _132  and  _134
REMARK   57  A    between atoms: _134  and  _135
REMARK   58  A    between atoms: _134  and  _137
REMARK   59  A    between atoms: _140  and  _142
REMARK   60  A    between atoms: _142  and  _143
REMARK   61  A    between atoms: _142  and  _145
REMARK   62  A    between atoms: _145  and  _146
REMARK   63  A    between atoms: _146  and  _147
REMARK   64  A    between atoms: _147  and  _148
REMARK   65  A    between atoms: _148  and  _149
REMARK   66  A    between atoms: _153  and  _155
REMARK   67  A    between atoms: _155  and  _156
REMARK   68  A    between atoms: _155  and  _158
REMARK   69  A    between atoms: _161  and  _163
REMARK   70  A    between atoms: _163  and  _164
REMARK   71  A    between atoms: _163  and  _166
REMARK   72  A    between atoms: _166  and  _167
REMARK   73  A    between atoms: _170  and  _172
REMARK   74  A    between atoms: _172  and  _173
REMARK   75  A    between atoms: _172  and  _175
REMARK   76  A    between atoms: _178  and  _180
REMARK   77  A    between atoms: _180  and  _181
REMARK   78  A    between atoms: _180  and  _183
REMARK   79  A    between atoms: _183  and  _184
REMARK   80  A    between atoms: _187  and  _189
REMARK   81  A    between atoms: _189  and  _190
REMARK   82  A    between atoms: _189  and  _192
REMARK   83  A    between atoms: _192  and  _193
REMARK   84  A    between atoms: _193  and  _194
REMARK   85  A    between atoms: _196  and  _198
REMARK   86  A    between atoms: _198  and  _199
REMARK   87  A    between atoms: _198  and  _201
REMARK   88  A    between atoms: _201  and  _202
REMARK   89  A    between atoms: _202  and  _203
REMARK   90  A    between atoms: _203  and  _204
REMARK   91  A    between atoms: _204  and  _205
REMARK   92  A    between atoms: _209  and  _211
REMARK   93  A    between atoms: _211  and  _212
REMARK   94  A    between atoms: _211  and  _214
REMARK   95  A    between atoms: _214  and  _215
REMARK   96  A    between atoms: _218  and  _220
REMARK   97  A    between atoms: _220  and  _221
REMARK   98  A    between atoms: _220  and  _223
REMARK   99  A    between atoms: _223  and  _224
REMARK  100  A    between atoms: _229  and  _230
REMARK  101  A    between atoms: _232  and  _234
REMARK  102  A    between atoms: _234  and  _235
REMARK  103  A    between atoms: _234  and  _237
REMARK  104  A    between atoms: _237  and  _238
REMARK  105  A    between atoms: _238  and  _239
REMARK  106  A    between atoms: _242  and  _244
REMARK  107  A    between atoms: _244  and  _245
REMARK  108  A    between atoms: _244  and  _247
REMARK  109  A    between atoms: _247  and  _248
REMARK  110  A    between atoms: _254  and  _256
REMARK  111  A    between atoms: _256  and  _257
REMARK  112  A    between atoms: _256  and  _259
REMARK  113  A    between atoms: _259  and  _260
REMARK  114  A    between atoms: _265  and  _266
REMARK  115  A    between atoms: _268  and  _270
REMARK  116  A    between atoms: _270  and  _271
REMARK  117  A    between atoms: _270  and  _273
REMARK  118  A    between atoms: _273  and  _274
REMARK  119  A    between atoms: _277  and  _279
REMARK  120  A    between atoms: _279  and  _280
REMARK  121  A    between atoms: _279  and  _282
REMARK  122  A    between atoms: _285  and  _287
REMARK  123  A    between atoms: _287  and  _288
REMARK  124  A    between atoms: _290  and  _292
REMARK  125  A    between atoms: _292  and  _293
REMARK  126  A    between atoms: _292  and  _295
REMARK  127  A    between atoms: _295  and  _296
REMARK  128  A    between atoms: _296  and  _297
REMARK  129  A    between atoms: _300  and  _302
REMARK  130  A    between atoms: _302  and  _303
REMARK  131  A    between atoms: _302  and  _305
REMARK  132  A    between atoms: _308  and  _310
REMARK  133  A    between atoms: _310  and  _311
REMARK  134  A    between atoms: _310  and  _313
REMARK  135  A    between atoms: _313  and  _314
REMARK  136  A    between atoms: _319  and  _320
REMARK  137  A    between atoms: _322  and  _324
REMARK  138  A    between atoms: _324  and  _325
REMARK  139  A    between atoms: _324  and  _327
REMARK  140  A    between atoms: _327  and  _328
REMARK  141  A    between atoms: _331  and  _333
REMARK  142  A    between atoms: _333  and  _334
REMARK  143  A    between atoms: _336  and  _338
REMARK  144  A    between atoms: _338  and  _339
REMARK  145  A    between atoms: _341  and  _343
REMARK  146  A    between atoms: _343  and  _344
REMARK  147  A    between atoms: _343  and  _346
REMARK  148  A    between atoms: _346  and  _347
REMARK  149  A    between atoms: _347  and  _348
REMARK  150  A    between atoms: _351  and  _353
REMARK  151  A    between atoms: _353  and  _354
REMARK  152  A    between atoms: _353  and  _356
REMARK  153  A    between atoms: _356  and  _357
REMARK  154  A    between atoms: _360  and  _362
REMARK  155  A    between atoms: _362  and  _363
REMARK  156  A    between atoms: _362  and  _365
REMARK  157  A    between atoms: _365  and  _366
REMARK  158  A    between atoms: _369  and  _371
REMARK  159  A    between atoms: _371  and  _372
REMARK  160  A    between atoms: _371  and  _374
REMARK  161  A    between atoms: _374  and  _375
REMARK  162  A    between atoms: _380  and  _382
REMARK  163  A    between atoms: _382  and  _383
REMARK  164  A    between atoms: _382  and  _385
REMARK  165  A    between atoms: _385  and  _386
REMARK  166  A    between atoms: _386  and  _387
REMARK  167  A    between atoms: _387  and  _388
REMARK  168  A    between atoms: _388  and  _389
REMARK  169  A    between atoms: _394  and  _395
REMARK  170  A    between atoms: _400  and  _402
REMARK  171  A    between atoms: _402  and  _403
REMARK  172  A    between atoms: _402  and  _405
REMARK  173  A    between atoms: _405  and  _406
REMARK  174  A    between atoms: _406  and  _407
REMARK  175  A    between atoms: _410  and  _412
REMARK  176  A    between atoms: _412  and  _413
REMARK  177  A    between atoms: _412  and  _415
REMARK  178  A    between atoms: _415  and  _416
REMARK  179  A    between atoms: _421  and  _423
REMARK  180  A    between atoms: _423  and  _424
REMARK  181  A    between atoms: _423  and  _426
REMARK  182  A    between atoms: _426  and  _427
REMARK  183  A    between atoms: _430  and  _432
REMARK  184  A    between atoms: _432  and  _433
REMARK  185  A    between atoms: _432  and  _435
REMARK  186  A    between atoms: _435  and  _436
REMARK  187  A    between atoms: _439  and  _441
REMARK  188  A    between atoms: _441  and  _442
REMARK  189  A    between atoms: _441  and  _444
REMARK  190  A    between atoms: _444  and  _445
REMARK  191  A    between atoms: _448  and  _450
REMARK  192  A    between atoms: _450  and  _451
REMARK  193  A    between atoms: _450  and  _453
REMARK  194  A    between atoms: _453  and  _454
REMARK  195  A    between atoms: _454  and  _455
REMARK  196  A    between atoms: _455  and  _456
REMARK  197  A    between atoms: _465  and  _467
REMARK  198  A    between atoms: _467  and  _468
REMARK  199  A    between atoms: _467  and  _470
REMARK  200  A    between atoms: _470  and  _471
REMARK  201  A    between atoms: _474  and  _476
REMARK  202  A    between atoms: _476  and  _477
REMARK  203  A    between atoms: _476  and  _479
REMARK  204  A    between atoms: _479  and  _480
REMARK  205  A    between atoms: _483  and  _485
REMARK  206  A    between atoms: _485  and  _486
REMARK  207  A    between atoms: _485  and  _488
REMARK  208  A    between atoms: _488  and  _489
REMARK  209  A    between atoms: _492  and  _494
REMARK  210  A    between atoms: _494  and  _495
REMARK  211  A    between atoms: _494  and  _497
REMARK  212  A    between atoms: _497  and  _498
REMARK  213  A    between atoms: _504  and  _506
REMARK  214  A    between atoms: _506  and  _507
REMARK  215  A    between atoms: _509  and  _511
REMARK  216  A    between atoms: _511  and  _512
REMARK  217  A    between atoms: _511  and  _514
REMARK  218  A    between atoms: _514  and  _515
REMARK  219  A    between atoms: _518  and  _520
REMARK  220  A    between atoms: _520  and  _521
REMARK  221  A    between atoms: _520  and  _523
REMARK  222  A    between atoms: _523  and  _524
REMARK  223  A    between atoms: _530  and  _532
REMARK  224  A    between atoms: _532  and  _533
REMARK  225  A    between atoms: _532  and  _535
REMARK  226  A    between atoms: _535  and  _536
REMARK  227  A    between atoms: _536  and  _537
REMARK  228  A    between atoms: _537  and  _538
REMARK  229  A    between atoms: _538  and  _539
REMARK  230  A    between atoms: _543  and  _545
REMARK  231  A    between atoms: _545  and  _546
REMARK  232  A    between atoms: _545  and  _548
REMARK  233  A    between atoms: _548  and  _549
REMARK  234  A    between atoms: _549  and  _550
REMARK                            x       y       z     vdW  Elec       q    Type
REMARK                         _______ _______ _______ _____ _____    ______ ____
ROOT
ATOM      1  O   HOH     1      18.952  19.367  63.363  0.00  0.00    +0.000 OA
ENDROOT
TORSDOF 0
REMARK  Name = ../refined-set-2016/3t3u/3t3u_pocket.pdb
REMARK  234 active torsions:
REMARK  status: ('A' for Active; 'I' for Inactive)
REMARK    1  A    between atoms: _1  and  _3
REMARK    2  A    between atoms: _3  and  _4
REMARK    3  A    between atoms: _3  and  _6
REMARK    4  A    between atoms: _6  and  _7
REMARK    5  A    between atoms: _7  and  _8
REMARK    6  A    between atoms: _8  and  _9
REMARK    7  A    between atoms: _18  and  _20
REMARK    8  A    between atoms: _20  and  _21
REMARK    9  A    between atoms: _20  and  _23
REMARK   10  A    between atoms: _26  and  _28
REMARK   11  A    between atoms: _28  and  _29
REMARK   12  A    between atoms: _28  and  _31
REMARK   13  A    between atoms: _31  and  _32
REMARK   14  A    between atoms: _35  and  _37
REMARK   15  A    between atoms: _37  and  _38
REMARK   16  A    between atoms: _40  and  _42
REMARK   17  A    between atoms: _42  and  _43
REMARK   18  A    between atoms: _42  and  _45
REMARK   19  A    between atoms: _45  and  _46
REMARK   20  A    between atoms: _46  and  _47
REMARK   21  A    between atoms: _47  and  _48
REMARK   22  A    between atoms: _48  and  _49
REMARK   23  A    between atoms: _53  and  _55
REMARK   24  A    between atoms: _55  and  _56
REMARK   25  A    between atoms: _58  and  _60
REMARK   26  A    between atoms: _60  and  _61
REMARK   27  A    between atoms: _60  and  _63
REMARK   28  A    between atoms: _63  and  _64
REMARK   29  A    between atoms: _66  and  _68
REMARK   30  A    between atoms: _68  and  _69
REMARK   31  A    between atoms: _68  and  _71
REMARK   32  A    between atoms: _71  and  _72
REMARK   33  A    between atoms: _78  and  _80
REMARK   34  A    between atoms: _80  and  _81
REMARK   35  A    between atoms: _83  and  _85
REMARK   36  A    between atoms: _85  and  _86
REMARK   37  A    between atoms: _85  and  _88
REMARK   38  A    between atoms: _88  and  _89
REMARK   39  A    between atoms: _89  and  _90
REMARK   40  A    between atoms: _93  and  _95
REMARK   41  A    between atoms: _95  and  _96
REMARK   42  A    between atoms: _95  and  _98
REMARK   43  A    between atoms: _101  and  _103
REMARK   44  A    between atoms: _103  and  _104
REMARK   45  A    between atoms: _103  and  _106
REMARK   46  A    between atoms: _106  and  _107
REMARK   47  A    between atoms: _110  and  _112
REMARK   48  A    between atoms: _112  and  _113
REMARK   49  A    between atoms: _112  and  _115
REMARK   50  A    between atoms: _115  and  _116
REMARK   51  A    between atoms: _119  and  _121
REMARK   52  A    between atoms: _121  and  _122
REMARK   53  A    between atoms: _121  and  _124
REMARK   54  A    between atoms: _126  and  _128
REMARK   55  A    between atoms: _128  and  _129
REMARK   56  A    between atoms: _132  and  _134
REMARK   57  A    between atoms: _134  and  _135
REMARK   58  A    between atoms: _134  and  _137
REMARK   59  A    between atoms: _140  and  _142
REMARK   60  A    between atoms: _142  and  _143
REMARK   61  A    between atoms: _142  and  _145
REMARK   62  A    between atoms: _145  and  _146
REMARK   63  A    between atoms: _146  and  _147
REMARK   64  A    between atoms: _147  and  _148
REMARK   65  A    between atoms: _148  and  _149
REMARK   66  A    between atoms: _153  and  _155
REMARK   67  A    between atoms: _155  and  _156
REMARK   68  A    between atoms: _155  and  _158
REMARK   69  A    between atoms: _161  and  _163
REMARK   70  A    between atoms: _163  and  _164
REMARK   71  A    between atoms: _163  and  _166
REMARK   72  A    between atoms: _166  and  _167
REMARK   73  A    between atoms: _170  and  _172
REMARK   74  A    between atoms: _172  and  _173
REMARK   75  A    between atoms: _172  and  _175
REMARK   76  A    between atoms: _178  and  _180
REMARK   77  A    between atoms: _180  and  _181
REMARK   78  A    between atoms: _180  and  _183
REMARK   79  A    between atoms: _183  and  _184
REMARK   80  A    between atoms: _187  and  _189
REMARK   81  A    between atoms: _189  and  _190
REMARK   82  A    between atoms: _189  and  _192
REMARK   83  A    between atoms: _192  and  _193
REMARK   84  A    between atoms: _193  and  _194
REMARK   85  A    between atoms: _196  and  _198
REMARK   86  A    between atoms: _198  and  _199
REMARK   87  A    between atoms: _198  and  _201
REMARK   88  A    between atoms: _201  and  _202
REMARK   89  A    between atoms: _202  and  _203
REMARK   90  A    between atoms: _203  and  _204
REMARK   91  A    between atoms: _204  and  _205
REMARK   92  A    between atoms: _209  and  _211
REMARK   93  A    between atoms: _211  and  _212
REMARK   94  A    between atoms: _211  and  _214
REMARK   95  A    between atoms: _214  and  _215
REMARK   96  A    between atoms: _218  and  _220
REMARK   97  A    between atoms: _220  and  _221
REMARK   98  A    between atoms: _220  and  _223
REMARK   99  A    between atoms: _223  and  _224
REMARK  100  A    between atoms: _229  and  _230
REMARK  101  A    between atoms: _232  and  _234
REMARK  102  A    between atoms: _234  and  _235
REMARK  103  A    between atoms: _234  and  _237
REMARK  104  A    between atoms: _237  and  _238
REMARK  105  A    between atoms: _238  and  _239
REMARK  106  A    between atoms: _242  and  _244
REMARK  107  A    between atoms: _244  and  _245
REMARK  108  A    between atoms: _244  and  _247
REMARK  109  A    between atoms: _247  and  _248
REMARK  110  A    between atoms: _254  and  _256
REMARK  111  A    between atoms: _256  and  _257
REMARK  112  A    between atoms: _256  and  _259
REMARK  113  A    between atoms: _259  and  _260
REMARK  114  A    between atoms: _265  and  _266
REMARK  115  A    between atoms: _268  and  _270
REMARK  116  A    between atoms: _270  and  _271
REMARK  117  A    between atoms: _270  and  _273
REMARK  118  A    between atoms: _273  and  _274
REMARK  119  A    between atoms: _277  and  _279
REMARK  120  A    between atoms: _279  and  _280
REMARK  121  A    between atoms: _279  and  _282
REMARK  122  A    between atoms: _285  and  _287
REMARK  123  A    between atoms: _287  and  _288
REMARK  124  A    between atoms: _290  and  _292
REMARK  125  A    between atoms: _292  and  _293
REMARK  126  A    between atoms: _292  and  _295
REMARK  127  A    between atoms: _295  and  _296
REMARK  128  A    between atoms: _296  and  _297
REMARK  129  A    between atoms: _300  and  _302
REMARK  130  A    between atoms: _302  and  _303
REMARK  131  A    between atoms: _302  and  _305
REMARK  132  A    between atoms: _308  and  _310
REMARK  133  A    between atoms: _310  and  _311
REMARK  134  A    between atoms: _310  and  _313
REMARK  135  A    between atoms: _313  and  _314
REMARK  136  A    between atoms: _319  and  _320
REMARK  137  A    between atoms: _322  and  _324
REMARK  138  A    between atoms: _324  and  _325
REMARK  139  A    between atoms: _324  and  _327
REMARK  140  A    between atoms: _327  and  _328
REMARK  141  A    between atoms: _331  and  _333
REMARK  142  A    between atoms: _333  and  _334
REMARK  143  A    between atoms: _336  and  _338
REMARK  144  A    between atoms: _338  and  _339
REMARK  145  A    between atoms: _341  and  _343
REMARK  146  A    between atoms: _343  and  _344
REMARK  147  A    between atoms: _343  and  _346
REMARK  148  A    between atoms: _346  and  _347
REMARK  149  A    between atoms: _347  and  _348
REMARK  150  A    between atoms: _351  and  _353
REMARK  151  A    between atoms: _353  and  _354
REMARK  152  A    between atoms: _353  and  _356
REMARK  153  A    between atoms: _356  and  _357
REMARK  154  A    between atoms: _360  and  _362
REMARK  155  A    between atoms: _362  and  _363
REMARK  156  A    between atoms: _362  and  _365
REMARK  157  A    between atoms: _365  and  _366
REMARK  158  A    between atoms: _369  and  _371
REMARK  159  A    between atoms: _371  and  _372
REMARK  160  A    between atoms: _371  and  _374
REMARK  161  A    between atoms: _374  and  _375
REMARK  162  A    between atoms: _380  and  _382
REMARK  163  A    between atoms: _382  and  _383
REMARK  164  A    between atoms: _382  and  _385
REMARK  165  A    between atoms: _385  and  _386
REMARK  166  A    between atoms: _386  and  _387
REMARK  167  A    between atoms: _387  and  _388
REMARK  168  A    between atoms: _388  and  _389
REMARK  169  A    between atoms: _394  and  _395
REMARK  170  A    between atoms: _400  and  _402
REMARK  171  A    between atoms: _402  and  _403
REMARK  172  A    between atoms: _402  and  _405
REMARK  173  A    between atoms: _405  and  _406
REMARK  174  A    between atoms: _406  and  _407
REMARK  175  A    between atoms: _410  and  _412
REMARK  176  A    between atoms: _412  and  _413
REMARK  177  A    between atoms: _412  and  _415
REMARK  178  A    between atoms: _415  and  _416
REMARK  179  A    between atoms: _421  and  _423
REMARK  180  A    between atoms: _423  and  _424
REMARK  181  A    between atoms: _423  and  _426
REMARK  182  A    between atoms: _426  and  _427
REMARK  183  A    between atoms: _430  and  _432
REMARK  184  A    between atoms: _432  and  _433
REMARK  185  A    between atoms: _432  and  _435
REMARK  186  A    between atoms: _435  and  _436
REMARK  187  A    between atoms: _439  and  _441
REMARK  188  A    between atoms: _441  and  _442
REMARK  189  A    between atoms: _441  and  _444
REMARK  190  A    between atoms: _444  and  _445
REMARK  191  A    between atoms: _448  and  _450
REMARK  192  A    between atoms: _450  and  _451
REMARK  193  A    between atoms: _450  and  _453
REMARK  194  A    between atoms: _453  and  _454
REMARK  195  A    between atoms: _454  and  _455
REMARK  196  A    between atoms: _455  and  _456
REMARK  197  A    between atoms: _465  and  _467
REMARK  198  A    between atoms: _467  and  _468
REMARK  199  A    between atoms: _467  and  _470
REMARK  200  A    between atoms: _470  and  _471
REMARK  201  A    between atoms: _474  and  _476
REMARK  202  A    between atoms: _476  and  _477
REMARK  203  A    between atoms: _476  and  _479
REMARK  204  A    between atoms: _479  and  _480
REMARK  205  A    between atoms: _483  and  _485
REMARK  206  A    between atoms: _485  and  _486
REMARK  207  A    between atoms: _485  and  _488
REMARK  208  A    between atoms: _488  and  _489
REMARK  209  A    between atoms: _492  and  _494
REMARK  210  A    between atoms: _494  and  _495
REMARK  211  A    between atoms: _494  and  _497
REMARK  212  A    between atoms: _497  and  _498
REMARK  213  A    between atoms: _504  and  _506
REMARK  214  A    between atoms: _506  and  _507
REMARK  215  A    between atoms: _509  and  _511
REMARK  216  A    between atoms: _511  and  _512
REMARK  217  A    between atoms: _511  and  _514
REMARK  218  A    between atoms: _514  and  _515
REMARK  219  A    between atoms: _518  and  _520
REMARK  220  A    between atoms: _520  and  _521
REMARK  221  A    between atoms: _520  and  _523
REMARK  222  A    between atoms: _523  and  _524
REMARK  223  A    between atoms: _530  and  _532
REMARK  224  A    between atoms: _532  and  _533
REMARK  225  A    between atoms: _532  and  _535
REMARK  226  A    between atoms: _535  and  _536
REMARK  227  A    between atoms: _536  and  _537
REMARK  228  A    between atoms: _537  and  _538
REMARK  229  A    between atoms: _538  and  _539
REMARK  230  A    between atoms: _543  and  _545
REMARK  231  A    between atoms: _545  and  _546
REMARK  232  A    between atoms: _545  and  _548
REMARK  233  A    between atoms: _548  and  _549
REMARK  234  A    between atoms: _549  and  _550
REMARK                            x       y       z     vdW  Elec       q    Type
REMARK                         _______ _______ _______ _____ _____    ______ ____
ROOT
ATOM      1  O   HOH     1      20.475   5.764  67.756  0.00  0.00    +0.000 OA
ENDROOT
TORSDOF 0
REMARK  Name = ../refined-set-2016/3t3u/3t3u_pocket.pdb
REMARK  234 active torsions:
REMARK  status: ('A' for Active; 'I' for Inactive)
REMARK    1  A    between atoms: _1  and  _3
REMARK    2  A    between atoms: _3  and  _4
REMARK    3  A    between atoms: _3  and  _6
REMARK    4  A    between atoms: _6  and  _7
REMARK    5  A    between atoms: _7  and  _8
REMARK    6  A    between atoms: _8  and  _9
REMARK    7  A    between atoms: _18  and  _20
REMARK    8  A    between atoms: _20  and  _21
REMARK    9  A    between atoms: _20  and  _23
REMARK   10  A    between atoms: _26  and  _28
REMARK   11  A    between atoms: _28  and  _29
REMARK   12  A    between atoms: _28  and  _31
REMARK   13  A    between atoms: _31  and  _32
REMARK   14  A    between atoms: _35  and  _37
REMARK   15  A    between atoms: _37  and  _38
REMARK   16  A    between atoms: _40  and  _42
REMARK   17  A    between atoms: _42  and  _43
REMARK   18  A    between atoms: _42  and  _45
REMARK   19  A    between atoms: _45  and  _46
REMARK   20  A    between atoms: _46  and  _47
REMARK   21  A    between atoms: _47  and  _48
REMARK   22  A    between atoms: _48  and  _49
REMARK   23  A    between atoms: _53  and  _55
REMARK   24  A    between atoms: _55  and  _56
REMARK   25  A    between atoms: _58  and  _60
REMARK   26  A    between atoms: _60  and  _61
REMARK   27  A    between atoms: _60  and  _63
REMARK   28  A    between atoms: _63  and  _64
REMARK   29  A    between atoms: _66  and  _68
REMARK   30  A    between atoms: _68  and  _69
REMARK   31  A    between atoms: _68  and  _71
REMARK   32  A    between atoms: _71  and  _72
REMARK   33  A    between atoms: _78  and  _80
REMARK   34  A    between atoms: _80  and  _81
REMARK   35  A    between atoms: _83  and  _85
REMARK   36  A    between atoms: _85  and  _86
REMARK   37  A    between atoms: _85  and  _88
REMARK   38  A    between atoms: _88  and  _89
REMARK   39  A    between atoms: _89  and  _90
REMARK   40  A    between atoms: _93  and  _95
REMARK   41  A    between atoms: _95  and  _96
REMARK   42  A    between atoms: _95  and  _98
REMARK   43  A    between atoms: _101  and  _103
REMARK   44  A    between atoms: _103  and  _104
REMARK   45  A    between atoms: _103  and  _106
REMARK   46  A    between atoms: _106  and  _107
REMARK   47  A    between atoms: _110  and  _112
REMARK   48  A    between atoms: _112  and  _113
REMARK   49  A    between atoms: _112  and  _115
REMARK   50  A    between atoms: _115  and  _116
REMARK   51  A    between atoms: _119  and  _121
REMARK   52  A    between atoms: _121  and  _122
REMARK   53  A    between atoms: _121  and  _124
REMARK   54  A    between atoms: _126  and  _128
REMARK   55  A    between atoms: _128  and  _129
REMARK   56  A    between atoms: _132  and  _134
REMARK   57  A    between atoms: _134  and  _135
REMARK   58  A    between atoms: _134  and  _137
REMARK   59  A    between atoms: _140  and  _142
REMARK   60  A    between atoms: _142  and  _143
REMARK   61  A    between atoms: _142  and  _145
REMARK   62  A    between atoms: _145  and  _146
REMARK   63  A    between atoms: _146  and  _147
REMARK   64  A    between atoms: _147  and  _148
REMARK   65  A    between atoms: _148  and  _149
REMARK   66  A    between atoms: _153  and  _155
REMARK   67  A    between atoms: _155  and  _156
REMARK   68  A    between atoms: _155  and  _158
REMARK   69  A    between atoms: _161  and  _163
REMARK   70  A    between atoms: _163  and  _164
REMARK   71  A    between atoms: _163  and  _166
REMARK   72  A    between atoms: _166  and  _167
REMARK   73  A    between atoms: _170  and  _172
REMARK   74  A    between atoms: _172  and  _173
REMARK   75  A    between atoms: _172  and  _175
REMARK   76  A    between atoms: _178  and  _180
REMARK   77  A    between atoms: _180  and  _181
REMARK   78  A    between atoms: _180  and  _183
REMARK   79  A    between atoms: _183  and  _184
REMARK   80  A    between atoms: _187  and  _189
REMARK   81  A    between atoms: _189  and  _190
REMARK   82  A    between atoms: _189  and  _192
REMARK   83  A    between atoms: _192  and  _193
REMARK   84  A    between atoms: _193  and  _194
REMARK   85  A    between atoms: _196  and  _198
REMARK   86  A    between atoms: _198  and  _199
REMARK   87  A    between atoms: _198  and  _201
REMARK   88  A    between atoms: _201  and  _202
REMARK   89  A    between atoms: _202  and  _203
REMARK   90  A    between atoms: _203  and  _204
REMARK   91  A    between atoms: _204  and  _205
REMARK   92  A    between atoms: _209  and  _211
REMARK   93  A    between atoms: _211  and  _212
REMARK   94  A    between atoms: _211  and  _214
REMARK   95  A    between atoms: _214  and  _215
REMARK   96  A    between atoms: _218  and  _220
REMARK   97  A    between atoms: _220  and  _221
REMARK   98  A    between atoms: _220  and  _223
REMARK   99  A    between atoms: _223  and  _224
REMARK  100  A    between atoms: _229  and  _230
REMARK  101  A    between atoms: _232  and  _234
REMARK  102  A    between atoms: _234  and  _235
REMARK  103  A    between atoms: _234  and  _237
REMARK  104  A    between atoms: _237  and  _238
REMARK  105  A    between atoms: _238  and  _239
REMARK  106  A    between atoms: _242  and  _244
REMARK  107  A    between atoms: _244  and  _245
REMARK  108  A    between atoms: _244  and  _247
REMARK  109  A    between atoms: _247  and  _248
REMARK  110  A    between atoms: _254  and  _256
REMARK  111  A    between atoms: _256  and  _257
REMARK  112  A    between atoms: _256  and  _259
REMARK  113  A    between atoms: _259  and  _260
REMARK  114  A    between atoms: _265  and  _266
REMARK  115  A    between atoms: _268  and  _270
REMARK  116  A    between atoms: _270  and  _271
REMARK  117  A    between atoms: _270  and  _273
REMARK  118  A    between atoms: _273  and  _274
REMARK  119  A    between atoms: _277  and  _279
REMARK  120  A    between atoms: _279  and  _280
REMARK  121  A    between atoms: _279  and  _282
REMARK  122  A    between atoms: _285  and  _287
REMARK  123  A    between atoms: _287  and  _288
REMARK  124  A    between atoms: _290  and  _292
REMARK  125  A    between atoms: _292  and  _293
REMARK  126  A    between atoms: _292  and  _295
REMARK  127  A    between atoms: _295  and  _296
REMARK  128  A    between atoms: _296  and  _297
REMARK  129  A    between atoms: _300  and  _302
REMARK  130  A    between atoms: _302  and  _303
REMARK  131  A    between atoms: _302  and  _305
REMARK  132  A    between atoms: _308  and  _310
REMARK  133  A    between atoms: _310  and  _311
REMARK  134  A    between atoms: _310  and  _313
REMARK  135  A    between atoms: _313  and  _314
REMARK  136  A    between atoms: _319  and  _320
REMARK  137  A    between atoms: _322  and  _324
REMARK  138  A    between atoms: _324  and  _325
REMARK  139  A    between atoms: _324  and  _327
REMARK  140  A    between atoms: _327  and  _328
REMARK  141  A    between atoms: _331  and  _333
REMARK  142  A    between atoms: _333  and  _334
REMARK  143  A    between atoms: _336  and  _338
REMARK  144  A    between atoms: _338  and  _339
REMARK  145  A    between atoms: _341  and  _343
REMARK  146  A    between atoms: _343  and  _344
REMARK  147  A    between atoms: _343  and  _346
REMARK  148  A    between atoms: _346  and  _347
REMARK  149  A    between atoms: _347  and  _348
REMARK  150  A    between atoms: _351  and  _353
REMARK  151  A    between atoms: _353  and  _354
REMARK  152  A    between atoms: _353  and  _356
REMARK  153  A    between atoms: _356  and  _357
REMARK  154  A    between atoms: _360  and  _362
REMARK  155  A    between atoms: _362  and  _363
REMARK  156  A    between atoms: _362  and  _365
REMARK  157  A    between atoms: _365  and  _366
REMARK  158  A    between atoms: _369  and  _371
REMARK  159  A    between atoms: _371  and  _372
REMARK  160  A    between atoms: _371  and  _374
REMARK  161  A    between atoms: _374  and  _375
REMARK  162  A    between atoms: _380  and  _382
REMARK  163  A    between atoms: _382  and  _383
REMARK  164  A    between atoms: _382  and  _385
REMARK  165  A    between atoms: _385  and  _386
REMARK  166  A    between atoms: _386  and  _387
REMARK  167  A    between atoms: _387  and  _388
REMARK  168  A    between atoms: _388  and  _389
REMARK  169  A    between atoms: _394  and  _395
REMARK  170  A    between atoms: _400  and  _402
REMARK  171  A    between atoms: _402  and  _403
REMARK  172  A    between atoms: _402  and  _405
REMARK  173  A    between atoms: _405  and  _406
REMARK  174  A    between atoms: _406  and  _407
REMARK  175  A    between atoms: _410  and  _412
REMARK  176  A    between atoms: _412  and  _413
REMARK  177  A    between atoms: _412  and  _415
REMARK  178  A    between atoms: _415  and  _416
REMARK  179  A    between atoms: _421  and  _423
REMARK  180  A    between atoms: _423  and  _424
REMARK  181  A    between atoms: _423  and  _426
REMARK  182  A    between atoms: _426  and  _427
REMARK  183  A    between atoms: _430  and  _432
REMARK  184  A    between atoms: _432  and  _433
REMARK  185  A    between atoms: _432  and  _435
REMARK  186  A    between atoms: _435  and  _436
REMARK  187  A    between atoms: _439  and  _441
REMARK  188  A    between atoms: _441  and  _442
REMARK  189  A    between atoms: _441  and  _444
REMARK  190  A    between atoms: _444  and  _445
REMARK  191  A    between atoms: _448  and  _450
REMARK  192  A    between atoms: _450  and  _451
REMARK  193  A    between atoms: _450  and  _453
REMARK  194  A    between atoms: _453  and  _454
REMARK  195  A    between atoms: _454  and  _455
REMARK  196  A    between atoms: _455  and  _456
REMARK  197  A    between atoms: _465  and  _467
REMARK  198  A    between atoms: _467  and  _468
REMARK  199  A    between atoms: _467  and  _470
REMARK  200  A    between atoms: _470  and  _471
REMARK  201  A    between atoms: _474  and  _476
REMARK  202  A    between atoms: _476  and  _477
REMARK  203  A    between atoms: _476  and  _479
REMARK  204  A    between atoms: _479  and  _480
REMARK  205  A    between atoms: _483  and  _485
REMARK  206  A    between atoms: _485  and  _486
REMARK  207  A    between atoms: _485  and  _488
REMARK  208  A    between atoms: _488  and  _489
REMARK  209  A    between atoms: _492  and  _494
REMARK  210  A    between atoms: _494  and  _495
REMARK  211  A    between atoms: _494  and  _497
REMARK  212  A    between atoms: _497  and  _498
REMARK  213  A    between atoms: _504  and  _506
REMARK  214  A    between atoms: _506  and  _507
REMARK  215  A    between atoms: _509  and  _511
REMARK  216  A    between atoms: _511  and  _512
REMARK  217  A    between atoms: _511  and  _514
REMARK  218  A    between atoms: _514  and  _515
REMARK  219  A    between atoms: _518  and  _520
REMARK  220  A    between atoms: _520  and  _521
REMARK  221  A    between atoms: _520  and  _523
REMARK  222  A    between atoms: _523  and  _524
REMARK  223  A    between atoms: _530  and  _532
REMARK  224  A    between atoms: _532  and  _533
REMARK  225  A    between atoms: _532  and  _535
REMARK  226  A    between atoms: _535  and  _536
REMARK  227  A    between atoms: _536  and  _537
REMARK  228  A    between atoms: _537  and  _538
REMARK  229  A    between atoms: _538  and  _539
REMARK  230  A    between atoms: _543  and  _545
REMARK  231  A    between atoms: _545  and  _546
REMARK  232  A    between atoms: _545  and  _548
REMARK  233  A    between atoms: _548  and  _549
REMARK  234  A    between atoms: _549  and  _550
REMARK                            x       y       z     vdW  Elec       q    Type
REMARK                         _______ _______ _______ _____ _____    ______ ____
ROOT
ATOM      1  O   HOH     1      26.920  12.339  64.219  0.00  0.00    +0.000 OA
ENDROOT
TORSDOF 0
REMARK  Name = ../refined-set-2016/3t3u/3t3u_pocket.pdb
REMARK  234 active torsions:
REMARK  status: ('A' for Active; 'I' for Inactive)
REMARK    1  A    between atoms: _1  and  _3
REMARK    2  A    between atoms: _3  and  _4
REMARK    3  A    between atoms: _3  and  _6
REMARK    4  A    between atoms: _6  and  _7
REMARK    5  A    between atoms: _7  and  _8
REMARK    6  A    between atoms: _8  and  _9
REMARK    7  A    between atoms: _18  and  _20
REMARK    8  A    between atoms: _20  and  _21
REMARK    9  A    between atoms: _20  and  _23
REMARK   10  A    between atoms: _26  and  _28
REMARK   11  A    between atoms: _28  and  _29
REMARK   12  A    between atoms: _28  and  _31
REMARK   13  A    between atoms: _31  and  _32
REMARK   14  A    between atoms: _35  and  _37
REMARK   15  A    between atoms: _37  and  _38
REMARK   16  A    between atoms: _40  and  _42
REMARK   17  A    between atoms: _42  and  _43
REMARK   18  A    between atoms: _42  and  _45
REMARK   19  A    between atoms: _45  and  _46
REMARK   20  A    between atoms: _46  and  _47
REMARK   21  A    between atoms: _47  and  _48
REMARK   22  A    between atoms: _48  and  _49
REMARK   23  A    between atoms: _53  and  _55
REMARK   24  A    between atoms: _55  and  _56
REMARK   25  A    between atoms: _58  and  _60
REMARK   26  A    between atoms: _60  and  _61
REMARK   27  A    between atoms: _60  and  _63
REMARK   28  A    between atoms: _63  and  _64
REMARK   29  A    between atoms: _66  and  _68
REMARK   30  A    between atoms: _68  and  _69
REMARK   31  A    between atoms: _68  and  _71
REMARK   32  A    between atoms: _71  and  _72
REMARK   33  A    between atoms: _78  and  _80
REMARK   34  A    between atoms: _80  and  _81
REMARK   35  A    between atoms: _83  and  _85
REMARK   36  A    between atoms: _85  and  _86
REMARK   37  A    between atoms: _85  and  _88
REMARK   38  A    between atoms: _88  and  _89
REMARK   39  A    between atoms: _89  and  _90
REMARK   40  A    between atoms: _93  and  _95
REMARK   41  A    between atoms: _95  and  _96
REMARK   42  A    between atoms: _95  and  _98
REMARK   43  A    between atoms: _101  and  _103
REMARK   44  A    between atoms: _103  and  _104
REMARK   45  A    between atoms: _103  and  _106
REMARK   46  A    between atoms: _106  and  _107
REMARK   47  A    between atoms: _110  and  _112
REMARK   48  A    between atoms: _112  and  _113
REMARK   49  A    between atoms: _112  and  _115
REMARK   50  A    between atoms: _115  and  _116
REMARK   51  A    between atoms: _119  and  _121
REMARK   52  A    between atoms: _121  and  _122
REMARK   53  A    between atoms: _121  and  _124
REMARK   54  A    between atoms: _126  and  _128
REMARK   55  A    between atoms: _128  and  _129
REMARK   56  A    between atoms: _132  and  _134
REMARK   57  A    between atoms: _134  and  _135
REMARK   58  A    between atoms: _134  and  _137
REMARK   59  A    between atoms: _140  and  _142
REMARK   60  A    between atoms: _142  and  _143
REMARK   61  A    between atoms: _142  and  _145
REMARK   62  A    between atoms: _145  and  _146
REMARK   63  A    between atoms: _146  and  _147
REMARK   64  A    between atoms: _147  and  _148
REMARK   65  A    between atoms: _148  and  _149
REMARK   66  A    between atoms: _153  and  _155
REMARK   67  A    between atoms: _155  and  _156
REMARK   68  A    between atoms: _155  and  _158
REMARK   69  A    between atoms: _161  and  _163
REMARK   70  A    between atoms: _163  and  _164
REMARK   71  A    between atoms: _163  and  _166
REMARK   72  A    between atoms: _166  and  _167
REMARK   73  A    between atoms: _170  and  _172
REMARK   74  A    between atoms: _172  and  _173
REMARK   75  A    between atoms: _172  and  _175
REMARK   76  A    between atoms: _178  and  _180
REMARK   77  A    between atoms: _180  and  _181
REMARK   78  A    between atoms: _180  and  _183
REMARK   79  A    between atoms: _183  and  _184
REMARK   80  A    between atoms: _187  and  _189
REMARK   81  A    between atoms: _189  and  _190
REMARK   82  A    between atoms: _189  and  _192
REMARK   83  A    between atoms: _192  and  _193
REMARK   84  A    between atoms: _193  and  _194
REMARK   85  A    between atoms: _196  and  _198
REMARK   86  A    between atoms: _198  and  _199
REMARK   87  A    between atoms: _198  and  _201
REMARK   88  A    between atoms: _201  and  _202
REMARK   89  A    between atoms: _202  and  _203
REMARK   90  A    between atoms: _203  and  _204
REMARK   91  A    between atoms: _204  and  _205
REMARK   92  A    between atoms: _209  and  _211
REMARK   93  A    between atoms: _211  and  _212
REMARK   94  A    between atoms: _211  and  _214
REMARK   95  A    between atoms: _214  and  _215
REMARK   96  A    between atoms: _218  and  _220
REMARK   97  A    between atoms: _220  and  _221
REMARK   98  A    between atoms: _220  and  _223
REMARK   99  A    between atoms: _223  and  _224
REMARK  100  A    between atoms: _229  and  _230
REMARK  101  A    between atoms: _232  and  _234
REMARK  102  A    between atoms: _234  and  _235
REMARK  103  A    between atoms: _234  and  _237
REMARK  104  A    between atoms: _237  and  _238
REMARK  105  A    between atoms: _238  and  _239
REMARK  106  A    between atoms: _242  and  _244
REMARK  107  A    between atoms: _244  and  _245
REMARK  108  A    between atoms: _244  and  _247
REMARK  109  A    between atoms: _247  and  _248
REMARK  110  A    between atoms: _254  and  _256
REMARK  111  A    between atoms: _256  and  _257
REMARK  112  A    between atoms: _256  and  _259
REMARK  113  A    between atoms: _259  and  _260
REMARK  114  A    between atoms: _265  and  _266
REMARK  115  A    between atoms: _268  and  _270
REMARK  116  A    between atoms: _270  and  _271
REMARK  117  A    between atoms: _270  and  _273
REMARK  118  A    between atoms: _273  and  _274
REMARK  119  A    between atoms: _277  and  _279
REMARK  120  A    between atoms: _279  and  _280
REMARK  121  A    between atoms: _279  and  _282
REMARK  122  A    between atoms: _285  and  _287
REMARK  123  A    between atoms: _287  and  _288
REMARK  124  A    between atoms: _290  and  _292
REMARK  125  A    between atoms: _292  and  _293
REMARK  126  A    between atoms: _292  and  _295
REMARK  127  A    between atoms: _295  and  _296
REMARK  128  A    between atoms: _296  and  _297
REMARK  129  A    between atoms: _300  and  _302
REMARK  130  A    between atoms: _302  and  _303
REMARK  131  A    between atoms: _302  and  _305
REMARK  132  A    between atoms: _308  and  _310
REMARK  133  A    between atoms: _310  and  _311
REMARK  134  A    between atoms: _310  and  _313
REMARK  135  A    between atoms: _313  and  _314
REMARK  136  A    between atoms: _319  and  _320
REMARK  137  A    between atoms: _322  and  _324
REMARK  138  A    between atoms: _324  and  _325
REMARK  139  A    between atoms: _324  and  _327
REMARK  140  A    between atoms: _327  and  _328
REMARK  141  A    between atoms: _331  and  _333
REMARK  142  A    between atoms: _333  and  _334
REMARK  143  A    between atoms: _336  and  _338
REMARK  144  A    between atoms: _338  and  _339
REMARK  145  A    between atoms: _341  and  _343
REMARK  146  A    between atoms: _343  and  _344
REMARK  147  A    between atoms: _343  and  _346
REMARK  148  A    between atoms: _346  and  _347
REMARK  149  A    between atoms: _347  and  _348
REMARK  150  A    between atoms: _351  and  _353
REMARK  151  A    between atoms: _353  and  _354
REMARK  152  A    between atoms: _353  and  _356
REMARK  153  A    between atoms: _356  and  _357
REMARK  154  A    between atoms: _360  and  _362
REMARK  155  A    between atoms: _362  and  _363
REMARK  156  A    between atoms: _362  and  _365
REMARK  157  A    between atoms: _365  and  _366
REMARK  158  A    between atoms: _369  and  _371
REMARK  159  A    between atoms: _371  and  _372
REMARK  160  A    between atoms: _371  and  _374
REMARK  161  A    between atoms: _374  and  _375
REMARK  162  A    between atoms: _380  and  _382
REMARK  163  A    between atoms: _382  and  _383
REMARK  164  A    between atoms: _382  and  _385
REMARK  165  A    between atoms: _385  and  _386
REMARK  166  A    between atoms: _386  and  _387
REMARK  167  A    between atoms: _387  and  _388
REMARK  168  A    between atoms: _388  and  _389
REMARK  169  A    between atoms: _394  and  _395
REMARK  170  A    between atoms: _400  and  _402
REMARK  171  A    between atoms: _402  and  _403
REMARK  172  A    between atoms: _402  and  _405
REMARK  173  A    between atoms: _405  and  _406
REMARK  174  A    between atoms: _406  and  _407
REMARK  175  A    between atoms: _410  and  _412
REMARK  176  A    between atoms: _412  and  _413
REMARK  177  A    between atoms: _412  and  _415
REMARK  178  A    between atoms: _415  and  _416
REMARK  179  A    between atoms: _421  and  _423
REMARK  180  A    between atoms: _423  and  _424
REMARK  181  A    between atoms: _423  and  _426
REMARK  182  A    between atoms: _426  and  _427
REMARK  183  A    between atoms: _430  and  _432
REMARK  184  A    between atoms: _432  and  _433
REMARK  185  A    between atoms: _432  and  _435
REMARK  186  A    between atoms: _435  and  _436
REMARK  187  A    between atoms: _439  and  _441
REMARK  188  A    between atoms: _441  and  _442
REMARK  189  A    between atoms: _441  and  _444
REMARK  190  A    between atoms: _444  and  _445
REMARK  191  A    between atoms: _448  and  _450
REMARK  192  A    between atoms: _450  and  _451
REMARK  193  A    between atoms: _450  and  _453
REMARK  194  A    between atoms: _453  and  _454
REMARK  195  A    between atoms: _454  and  _455
REMARK  196  A    between atoms: _455  and  _456
REMARK  197  A    between atoms: _465  and  _467
REMARK  198  A    between atoms: _467  and  _468
REMARK  199  A    between atoms: _467  and  _470
REMARK  200  A    between atoms: _470  and  _471
REMARK  201  A    between atoms: _474  and  _476
REMARK  202  A    between atoms: _476  and  _477
REMARK  203  A    between atoms: _476  and  _479
REMARK  204  A    between atoms: _479  and  _480
REMARK  205  A    between atoms: _483  and  _485
REMARK  206  A    between atoms: _485  and  _486
REMARK  207  A    between atoms: _485  and  _488
REMARK  208  A    between atoms: _488  and  _489
REMARK  209  A    between atoms: _492  and  _494
REMARK  210  A    between atoms: _494  and  _495
REMARK  211  A    between atoms: _494  and  _497
REMARK  212  A    between atoms: _497  and  _498
REMARK  213  A    between atoms: _504  and  _506
REMARK  214  A    between atoms: _506  and  _507
REMARK  215  A    between atoms: _509  and  _511
REMARK  216  A    between atoms: _511  and  _512
REMARK  217  A    between atoms: _511  and  _514
REMARK  218  A    between atoms: _514  and  _515
REMARK  219  A    between atoms: _518  and  _520
REMARK  220  A    between atoms: _520  and  _521
REMARK  221  A    between atoms: _520  and  _523
REMARK  222  A    between atoms: _523  and  _524
REMARK  223  A    between atoms: _530  and  _532
REMARK  224  A    between atoms: _532  and  _533
REMARK  225  A    between atoms: _532  and  _535
REMARK  226  A    between atoms: _535  and  _536
REMARK  227  A    between atoms: _536  and  _537
REMARK  228  A    between atoms: _537  and  _538
REMARK  229  A    between atoms: _538  and  _539
REMARK  230  A    between atoms: _543  and  _545
REMARK  231  A    between atoms: _545  and  _546
REMARK  232  A    between atoms: _545  and  _548
REMARK  233  A    between atoms: _548  and  _549
REMARK  234  A    between atoms: _549  and  _550
REMARK                            x       y       z     vdW  Elec       q    Type
REMARK                         _______ _______ _______ _____ _____    ______ ____
ROOT
ATOM      1  O   HOH     1      27.920  16.959  56.986  0.00  0.00    +0.000 OA
ENDROOT
TORSDOF 0
REMARK  Name = ../refined-set-2016/3t3u/3t3u_pocket.pdb
REMARK  234 active torsions:
REMARK  status: ('A' for Active; 'I' for Inactive)
REMARK    1  A    between atoms: _1  and  _3
REMARK    2  A    between atoms: _3  and  _4
REMARK    3  A    between atoms: _3  and  _6
REMARK    4  A    between atoms: _6  and  _7
REMARK    5  A    between atoms: _7  and  _8
REMARK    6  A    between atoms: _8  and  _9
REMARK    7  A    between atoms: _18  and  _20
REMARK    8  A    between atoms: _20  and  _21
REMARK    9  A    between atoms: _20  and  _23
REMARK   10  A    between atoms: _26  and  _28
REMARK   11  A    between atoms: _28  and  _29
REMARK   12  A    between atoms: _28  and  _31
REMARK   13  A    between atoms: _31  and  _32
REMARK   14  A    between atoms: _35  and  _37
REMARK   15  A    between atoms: _37  and  _38
REMARK   16  A    between atoms: _40  and  _42
REMARK   17  A    between atoms: _42  and  _43
REMARK   18  A    between atoms: _42  and  _45
REMARK   19  A    between atoms: _45  and  _46
REMARK   20  A    between atoms: _46  and  _47
REMARK   21  A    between atoms: _47  and  _48
REMARK   22  A    between atoms: _48  and  _49
REMARK   23  A    between atoms: _53  and  _55
REMARK   24  A    between atoms: _55  and  _56
REMARK   25  A    between atoms: _58  and  _60
REMARK   26  A    between atoms: _60  and  _61
REMARK   27  A    between atoms: _60  and  _63
REMARK   28  A    between atoms: _63  and  _64
REMARK   29  A    between atoms: _66  and  _68
REMARK   30  A    between atoms: _68  and  _69
REMARK   31  A    between atoms: _68  and  _71
REMARK   32  A    between atoms: _71  and  _72
REMARK   33  A    between atoms: _78  and  _80
REMARK   34  A    between atoms: _80  and  _81
REMARK   35  A    between atoms: _83  and  _85
REMARK   36  A    between atoms: _85  and  _86
REMARK   37  A    between atoms: _85  and  _88
REMARK   38  A    between atoms: _88  and  _89
REMARK   39  A    between atoms: _89  and  _90
REMARK   40  A    between atoms: _93  and  _95
REMARK   41  A    between atoms: _95  and  _96
REMARK   42  A    between atoms: _95  and  _98
REMARK   43  A    between atoms: _101  and  _103
REMARK   44  A    between atoms: _103  and  _104
REMARK   45  A    between atoms: _103  and  _106
REMARK   46  A    between atoms: _106  and  _107
REMARK   47  A    between atoms: _110  and  _112
REMARK   48  A    between atoms: _112  and  _113
REMARK   49  A    between atoms: _112  and  _115
REMARK   50  A    between atoms: _115  and  _116
REMARK   51  A    between atoms: _119  and  _121
REMARK   52  A    between atoms: _121  and  _122
REMARK   53  A    between atoms: _121  and  _124
REMARK   54  A    between atoms: _126  and  _128
REMARK   55  A    between atoms: _128  and  _129
REMARK   56  A    between atoms: _132  and  _134
REMARK   57  A    between atoms: _134  and  _135
REMARK   58  A    between atoms: _134  and  _137
REMARK   59  A    between atoms: _140  and  _142
REMARK   60  A    between atoms: _142  and  _143
REMARK   61  A    between atoms: _142  and  _145
REMARK   62  A    between atoms: _145  and  _146
REMARK   63  A    between atoms: _146  and  _147
REMARK   64  A    between atoms: _147  and  _148
REMARK   65  A    between atoms: _148  and  _149
REMARK   66  A    between atoms: _153  and  _155
REMARK   67  A    between atoms: _155  and  _156
REMARK   68  A    between atoms: _155  and  _158
REMARK   69  A    between atoms: _161  and  _163
REMARK   70  A    between atoms: _163  and  _164
REMARK   71  A    between atoms: _163  and  _166
REMARK   72  A    between atoms: _166  and  _167
REMARK   73  A    between atoms: _170  and  _172
REMARK   74  A    between atoms: _172  and  _173
REMARK   75  A    between atoms: _172  and  _175
REMARK   76  A    between atoms: _178  and  _180
REMARK   77  A    between atoms: _180  and  _181
REMARK   78  A    between atoms: _180  and  _183
REMARK   79  A    between atoms: _183  and  _184
REMARK   80  A    between atoms: _187  and  _189
REMARK   81  A    between atoms: _189  and  _190
REMARK   82  A    between atoms: _189  and  _192
REMARK   83  A    between atoms: _192  and  _193
REMARK   84  A    between atoms: _193  and  _194
REMARK   85  A    between atoms: _196  and  _198
REMARK   86  A    between atoms: _198  and  _199
REMARK   87  A    between atoms: _198  and  _201
REMARK   88  A    between atoms: _201  and  _202
REMARK   89  A    between atoms: _202  and  _203
REMARK   90  A    between atoms: _203  and  _204
REMARK   91  A    between atoms: _204  and  _205
REMARK   92  A    between atoms: _209  and  _211
REMARK   93  A    between atoms: _211  and  _212
REMARK   94  A    between atoms: _211  and  _214
REMARK   95  A    between atoms: _214  and  _215
REMARK   96  A    between atoms: _218  and  _220
REMARK   97  A    between atoms: _220  and  _221
REMARK   98  A    between atoms: _220  and  _223
REMARK   99  A    between atoms: _223  and  _224
REMARK  100  A    between atoms: _229  and  _230
REMARK  101  A    between atoms: _232  and  _234
REMARK  102  A    between atoms: _234  and  _235
REMARK  103  A    between atoms: _234  and  _237
REMARK  104  A    between atoms: _237  and  _238
REMARK  105  A    between atoms: _238  and  _239
REMARK  106  A    between atoms: _242  and  _244
REMARK  107  A    between atoms: _244  and  _245
REMARK  108  A    between atoms: _244  and  _247
REMARK  109  A    between atoms: _247  and  _248
REMARK  110  A    between atoms: _254  and  _256
REMARK  111  A    between atoms: _256  and  _257
REMARK  112  A    between atoms: _256  and  _259
REMARK  113  A    between atoms: _259  and  _260
REMARK  114  A    between atoms: _265  and  _266
REMARK  115  A    between atoms: _268  and  _270
REMARK  116  A    between atoms: _270  and  _271
REMARK  117  A    between atoms: _270  and  _273
REMARK  118  A    between atoms: _273  and  _274
REMARK  119  A    between atoms: _277  and  _279
REMARK  120  A    between atoms: _279  and  _280
REMARK  121  A    between atoms: _279  and  _282
REMARK  122  A    between atoms: _285  and  _287
REMARK  123  A    between atoms: _287  and  _288
REMARK  124  A    between atoms: _290  and  _292
REMARK  125  A    between atoms: _292  and  _293
REMARK  126  A    between atoms: _292  and  _295
REMARK  127  A    between atoms: _295  and  _296
REMARK  128  A    between atoms: _296  and  _297
REMARK  129  A    between atoms: _300  and  _302
REMARK  130  A    between atoms: _302  and  _303
REMARK  131  A    between atoms: _302  and  _305
REMARK  132  A    between atoms: _308  and  _310
REMARK  133  A    between atoms: _310  and  _311
REMARK  134  A    between atoms: _310  and  _313
REMARK  135  A    between atoms: _313  and  _314
REMARK  136  A    between atoms: _319  and  _320
REMARK  137  A    between atoms: _322  and  _324
REMARK  138  A    between atoms: _324  and  _325
REMARK  139  A    between atoms: _324  and  _327
REMARK  140  A    between atoms: _327  and  _328
REMARK  141  A    between atoms: _331  and  _333
REMARK  142  A    between atoms: _333  and  _334
REMARK  143  A    between atoms: _336  and  _338
REMARK  144  A    between atoms: _338  and  _339
REMARK  145  A    between atoms: _341  and  _343
REMARK  146  A    between atoms: _343  and  _344
REMARK  147  A    between atoms: _343  and  _346
REMARK  148  A    between atoms: _346  and  _347
REMARK  149  A    between atoms: _347  and  _348
REMARK  150  A    between atoms: _351  and  _353
REMARK  151  A    between atoms: _353  and  _354
REMARK  152  A    between atoms: _353  and  _356
REMARK  153  A    between atoms: _356  and  _357
REMARK  154  A    between atoms: _360  and  _362
REMARK  155  A    between atoms: _362  and  _363
REMARK  156  A    between atoms: _362  and  _365
REMARK  157  A    between atoms: _365  and  _366
REMARK  158  A    between atoms: _369  and  _371
REMARK  159  A    between atoms: _371  and  _372
REMARK  160  A    between atoms: _371  and  _374
REMARK  161  A    between atoms: _374  and  _375
REMARK  162  A    between atoms: _380  and  _382
REMARK  163  A    between atoms: _382  and  _383
REMARK  164  A    between atoms: _382  and  _385
REMARK  165  A    between atoms: _385  and  _386
REMARK  166  A    between atoms: _386  and  _387
REMARK  167  A    between atoms: _387  and  _388
REMARK  168  A    between atoms: _388  and  _389
REMARK  169  A    between atoms: _394  and  _395
REMARK  170  A    between atoms: _400  and  _402
REMARK  171  A    between atoms: _402  and  _403
REMARK  172  A    between atoms: _402  and  _405
REMARK  173  A    between atoms: _405  and  _406
REMARK  174  A    between atoms: _406  and  _407
REMARK  175  A    between atoms: _410  and  _412
REMARK  176  A    between atoms: _412  and  _413
REMARK  177  A    between atoms: _412  and  _415
REMARK  178  A    between atoms: _415  and  _416
REMARK  179  A    between atoms: _421  and  _423
REMARK  180  A    between atoms: _423  and  _424
REMARK  181  A    between atoms: _423  and  _426
REMARK  182  A    between atoms: _426  and  _427
REMARK  183  A    between atoms: _430  and  _432
REMARK  184  A    between atoms: _432  and  _433
REMARK  185  A    between atoms: _432  and  _435
REMARK  186  A    between atoms: _435  and  _436
REMARK  187  A    between atoms: _439  and  _441
REMARK  188  A    between atoms: _441  and  _442
REMARK  189  A    between atoms: _441  and  _444
REMARK  190  A    between atoms: _444  and  _445
REMARK  191  A    between atoms: _448  and  _450
REMARK  192  A    between atoms: _450  and  _451
REMARK  193  A    between atoms: _450  and  _453
REMARK  194  A    between atoms: _453  and  _454
REMARK  195  A    between atoms: _454  and  _455
REMARK  196  A    between atoms: _455  and  _456
REMARK  197  A    between atoms: _465  and  _467
REMARK  198  A    between atoms: _467  and  _468
REMARK  199  A    between atoms: _467  and  _470
REMARK  200  A    between atoms: _470  and  _471
REMARK  201  A    between atoms: _474  and  _476
REMARK  202  A    between atoms: _476  and  _477
REMARK  203  A    between atoms: _476  and  _479
REMARK  204  A    between atoms: _479  and  _480
REMARK  205  A    between atoms: _483  and  _485
REMARK  206  A    between atoms: _485  and  _486
REMARK  207  A    between atoms: _485  and  _488
REMARK  208  A    between atoms: _488  and  _489
REMARK  209  A    between atoms: _492  and  _494
REMARK  210  A    between atoms: _494  and  _495
REMARK  211  A    between atoms: _494  and  _497
REMARK  212  A    between atoms: _497  and  _498
REMARK  213  A    between atoms: _504  and  _506
REMARK  214  A    between atoms: _506  and  _507
REMARK  215  A    between atoms: _509  and  _511
REMARK  216  A    between atoms: _511  and  _512
REMARK  217  A    between atoms: _511  and  _514
REMARK  218  A    between atoms: _514  and  _515
REMARK  219  A    between atoms: _518  and  _520
REMARK  220  A    between atoms: _520  and  _521
REMARK  221  A    between atoms: _520  and  _523
REMARK  222  A    between atoms: _523  and  _524
REMARK  223  A    between atoms: _530  and  _532
REMARK  224  A    between atoms: _532  and  _533
REMARK  225  A    between atoms: _532  and  _535
REMARK  226  A    between atoms: _535  and  _536
REMARK  227  A    between atoms: _536  and  _537
REMARK  228  A    between atoms: _537  and  _538
REMARK  229  A    between atoms: _538  and  _539
REMARK  230  A    between atoms: _543  and  _545
REMARK  231  A    between atoms: _545  and  _546
REMARK  232  A    between atoms: _545  and  _548
REMARK  233  A    between atoms: _548  and  _549
REMARK  234  A    between atoms: _549  and  _550
REMARK                            x       y       z     vdW  Elec       q    Type
REMARK                         _______ _______ _______ _____ _____    ______ ____
ROOT
ATOM      1  O   HOH     1      24.161  20.343  52.950  0.00  0.00    +0.000 OA
ENDROOT
TORSDOF 0
REMARK  Name = ../refined-set-2016/3t3u/3t3u_pocket.pdb
REMARK  234 active torsions:
REMARK  status: ('A' for Active; 'I' for Inactive)
REMARK    1  A    between atoms: _1  and  _3
REMARK    2  A    between atoms: _3  and  _4
REMARK    3  A    between atoms: _3  and  _6
REMARK    4  A    between atoms: _6  and  _7
REMARK    5  A    between atoms: _7  and  _8
REMARK    6  A    between atoms: _8  and  _9
REMARK    7  A    between atoms: _18  and  _20
REMARK    8  A    between atoms: _20  and  _21
REMARK    9  A    between atoms: _20  and  _23
REMARK   10  A    between atoms: _26  and  _28
REMARK   11  A    between atoms: _28  and  _29
REMARK   12  A    between atoms: _28  and  _31
REMARK   13  A    between atoms: _31  and  _32
REMARK   14  A    between atoms: _35  and  _37
REMARK   15  A    between atoms: _37  and  _38
REMARK   16  A    between atoms: _40  and  _42
REMARK   17  A    between atoms: _42  and  _43
REMARK   18  A    between atoms: _42  and  _45
REMARK   19  A    between atoms: _45  and  _46
REMARK   20  A    between atoms: _46  and  _47
REMARK   21  A    between atoms: _47  and  _48
REMARK   22  A    between atoms: _48  and  _49
REMARK   23  A    between atoms: _53  and  _55
REMARK   24  A    between atoms: _55  and  _56
REMARK   25  A    between atoms: _58  and  _60
REMARK   26  A    between atoms: _60  and  _61
REMARK   27  A    between atoms: _60  and  _63
REMARK   28  A    between atoms: _63  and  _64
REMARK   29  A    between atoms: _66  and  _68
REMARK   30  A    between atoms: _68  and  _69
REMARK   31  A    between atoms: _68  and  _71
REMARK   32  A    between atoms: _71  and  _72
REMARK   33  A    between atoms: _78  and  _80
REMARK   34  A    between atoms: _80  and  _81
REMARK   35  A    between atoms: _83  and  _85
REMARK   36  A    between atoms: _85  and  _86
REMARK   37  A    between atoms: _85  and  _88
REMARK   38  A    between atoms: _88  and  _89
REMARK   39  A    between atoms: _89  and  _90
REMARK   40  A    between atoms: _93  and  _95
REMARK   41  A    between atoms: _95  and  _96
REMARK   42  A    between atoms: _95  and  _98
REMARK   43  A    between atoms: _101  and  _103
REMARK   44  A    between atoms: _103  and  _104
REMARK   45  A    between atoms: _103  and  _106
REMARK   46  A    between atoms: _106  and  _107
REMARK   47  A    between atoms: _110  and  _112
REMARK   48  A    between atoms: _112  and  _113
REMARK   49  A    between atoms: _112  and  _115
REMARK   50  A    between atoms: _115  and  _116
REMARK   51  A    between atoms: _119  and  _121
REMARK   52  A    between atoms: _121  and  _122
REMARK   53  A    between atoms: _121  and  _124
REMARK   54  A    between atoms: _126  and  _128
REMARK   55  A    between atoms: _128  and  _129
REMARK   56  A    between atoms: _132  and  _134
REMARK   57  A    between atoms: _134  and  _135
REMARK   58  A    between atoms: _134  and  _137
REMARK   59  A    between atoms: _140  and  _142
REMARK   60  A    between atoms: _142  and  _143
REMARK   61  A    between atoms: _142  and  _145
REMARK   62  A    between atoms: _145  and  _146
REMARK   63  A    between atoms: _146  and  _147
REMARK   64  A    between atoms: _147  and  _148
REMARK   65  A    between atoms: _148  and  _149
REMARK   66  A    between atoms: _153  and  _155
REMARK   67  A    between atoms: _155  and  _156
REMARK   68  A    between atoms: _155  and  _158
REMARK   69  A    between atoms: _161  and  _163
REMARK   70  A    between atoms: _163  and  _164
REMARK   71  A    between atoms: _163  and  _166
REMARK   72  A    between atoms: _166  and  _167
REMARK   73  A    between atoms: _170  and  _172
REMARK   74  A    between atoms: _172  and  _173
REMARK   75  A    between atoms: _172  and  _175
REMARK   76  A    between atoms: _178  and  _180
REMARK   77  A    between atoms: _180  and  _181
REMARK   78  A    between atoms: _180  and  _183
REMARK   79  A    between atoms: _183  and  _184
REMARK   80  A    between atoms: _187  and  _189
REMARK   81  A    between atoms: _189  and  _190
REMARK   82  A    between atoms: _189  and  _192
REMARK   83  A    between atoms: _192  and  _193
REMARK   84  A    between atoms: _193  and  _194
REMARK   85  A    between atoms: _196  and  _198
REMARK   86  A    between atoms: _198  and  _199
REMARK   87  A    between atoms: _198  and  _201
REMARK   88  A    between atoms: _201  and  _202
REMARK   89  A    between atoms: _202  and  _203
REMARK   90  A    between atoms: _203  and  _204
REMARK   91  A    between atoms: _204  and  _205
REMARK   92  A    between atoms: _209  and  _211
REMARK   93  A    between atoms: _211  and  _212
REMARK   94  A    between atoms: _211  and  _214
REMARK   95  A    between atoms: _214  and  _215
REMARK   96  A    between atoms: _218  and  _220
REMARK   97  A    between atoms: _220  and  _221
REMARK   98  A    between atoms: _220  and  _223
REMARK   99  A    between atoms: _223  and  _224
REMARK  100  A    between atoms: _229  and  _230
REMARK  101  A    between atoms: _232  and  _234
REMARK  102  A    between atoms: _234  and  _235
REMARK  103  A    between atoms: _234  and  _237
REMARK  104  A    between atoms: _237  and  _238
REMARK  105  A    between atoms: _238  and  _239
REMARK  106  A    between atoms: _242  and  _244
REMARK  107  A    between atoms: _244  and  _245
REMARK  108  A    between atoms: _244  and  _247
REMARK  109  A    between atoms: _247  and  _248
REMARK  110  A    between atoms: _254  and  _256
REMARK  111  A    between atoms: _256  and  _257
REMARK  112  A    between atoms: _256  and  _259
REMARK  113  A    between atoms: _259  and  _260
REMARK  114  A    between atoms: _265  and  _266
REMARK  115  A    between atoms: _268  and  _270
REMARK  116  A    between atoms: _270  and  _271
REMARK  117  A    between atoms: _270  and  _273
REMARK  118  A    between atoms: _273  and  _274
REMARK  119  A    between atoms: _277  and  _279
REMARK  120  A    between atoms: _279  and  _280
REMARK  121  A    between atoms: _279  and  _282
REMARK  122  A    between atoms: _285  and  _287
REMARK  123  A    between atoms: _287  and  _288
REMARK  124  A    between atoms: _290  and  _292
REMARK  125  A    between atoms: _292  and  _293
REMARK  126  A    between atoms: _292  and  _295
REMARK  127  A    between atoms: _295  and  _296
REMARK  128  A    between atoms: _296  and  _297
REMARK  129  A    between atoms: _300  and  _302
REMARK  130  A    between atoms: _302  and  _303
REMARK  131  A    between atoms: _302  and  _305
REMARK  132  A    between atoms: _308  and  _310
REMARK  133  A    between atoms: _310  and  _311
REMARK  134  A    between atoms: _310  and  _313
REMARK  135  A    between atoms: _313  and  _314
REMARK  136  A    between atoms: _319  and  _320
REMARK  137  A    between atoms: _322  and  _324
REMARK  138  A    between atoms: _324  and  _325
REMARK  139  A    between atoms: _324  and  _327
REMARK  140  A    between atoms: _327  and  _328
REMARK  141  A    between atoms: _331  and  _333
REMARK  142  A    between atoms: _333  and  _334
REMARK  143  A    between atoms: _336  and  _338
REMARK  144  A    between atoms: _338  and  _339
REMARK  145  A    between atoms: _341  and  _343
REMARK  146  A    between atoms: _343  and  _344
REMARK  147  A    between atoms: _343  and  _346
REMARK  148  A    between atoms: _346  and  _347
REMARK  149  A    between atoms: _347  and  _348
REMARK  150  A    between atoms: _351  and  _353
REMARK  151  A    between atoms: _353  and  _354
REMARK  152  A    between atoms: _353  and  _356
REMARK  153  A    between atoms: _356  and  _357
REMARK  154  A    between atoms: _360  and  _362
REMARK  155  A    between atoms: _362  and  _363
REMARK  156  A    between atoms: _362  and  _365
REMARK  157  A    between atoms: _365  and  _366
REMARK  158  A    between atoms: _369  and  _371
REMARK  159  A    between atoms: _371  and  _372
REMARK  160  A    between atoms: _371  and  _374
REMARK  161  A    between atoms: _374  and  _375
REMARK  162  A    between atoms: _380  and  _382
REMARK  163  A    between atoms: _382  and  _383
REMARK  164  A    between atoms: _382  and  _385
REMARK  165  A    between atoms: _385  and  _386
REMARK  166  A    between atoms: _386  and  _387
REMARK  167  A    between atoms: _387  and  _388
REMARK  168  A    between atoms: _388  and  _389
REMARK  169  A    between atoms: _394  and  _395
REMARK  170  A    between atoms: _400  and  _402
REMARK  171  A    between atoms: _402  and  _403
REMARK  172  A    between atoms: _402  and  _405
REMARK  173  A    between atoms: _405  and  _406
REMARK  174  A    between atoms: _406  and  _407
REMARK  175  A    between atoms: _410  and  _412
REMARK  176  A    between atoms: _412  and  _413
REMARK  177  A    between atoms: _412  and  _415
REMARK  178  A    between atoms: _415  and  _416
REMARK  179  A    between atoms: _421  and  _423
REMARK  180  A    between atoms: _423  and  _424
REMARK  181  A    between atoms: _423  and  _426
REMARK  182  A    between atoms: _426  and  _427
REMARK  183  A    between atoms: _430  and  _432
REMARK  184  A    between atoms: _432  and  _433
REMARK  185  A    between atoms: _432  and  _435
REMARK  186  A    between atoms: _435  and  _436
REMARK  187  A    between atoms: _439  and  _441
REMARK  188  A    between atoms: _441  and  _442
REMARK  189  A    between atoms: _441  and  _444
REMARK  190  A    between atoms: _444  and  _445
REMARK  191  A    between atoms: _448  and  _450
REMARK  192  A    between atoms: _450  and  _451
REMARK  193  A    between atoms: _450  and  _453
REMARK  194  A    between atoms: _453  and  _454
REMARK  195  A    between atoms: _454  and  _455
REMARK  196  A    between atoms: _455  and  _456
REMARK  197  A    between atoms: _465  and  _467
REMARK  198  A    between atoms: _467  and  _468
REMARK  199  A    between atoms: _467  and  _470
REMARK  200  A    between atoms: _470  and  _471
REMARK  201  A    between atoms: _474  and  _476
REMARK  202  A    between atoms: _476  and  _477
REMARK  203  A    between atoms: _476  and  _479
REMARK  204  A    between atoms: _479  and  _480
REMARK  205  A    between atoms: _483  and  _485
REMARK  206  A    between atoms: _485  and  _486
REMARK  207  A    between atoms: _485  and  _488
REMARK  208  A    between atoms: _488  and  _489
REMARK  209  A    between atoms: _492  and  _494
REMARK  210  A    between atoms: _494  and  _495
REMARK  211  A    between atoms: _494  and  _497
REMARK  212  A    between atoms: _497  and  _498
REMARK  213  A    between atoms: _504  and  _506
REMARK  214  A    between atoms: _506  and  _507
REMARK  215  A    between atoms: _509  and  _511
REMARK  216  A    between atoms: _511  and  _512
REMARK  217  A    between atoms: _511  and  _514
REMARK  218  A    between atoms: _514  and  _515
REMARK  219  A    between atoms: _518  and  _520
REMARK  220  A    between atoms: _520  and  _521
REMARK  221  A    between atoms: _520  and  _523
REMARK  222  A    between atoms: _523  and  _524
REMARK  223  A    between atoms: _530  and  _532
REMARK  224  A    between atoms: _532  and  _533
REMARK  225  A    between atoms: _532  and  _535
REMARK  226  A    between atoms: _535  and  _536
REMARK  227  A    between atoms: _536  and  _537
REMARK  228  A    between atoms: _537  and  _538
REMARK  229  A    between atoms: _538  and  _539
REMARK  230  A    between atoms: _543  and  _545
REMARK  231  A    between atoms: _545  and  _546
REMARK  232  A    between atoms: _545  and  _548
REMARK  233  A    between atoms: _548  and  _549
REMARK  234  A    between atoms: _549  and  _550
REMARK                            x       y       z     vdW  Elec       q    Type
REMARK                         _______ _______ _______ _____ _____    ______ ____
ROOT
ATOM      1  O   HOH     1      24.013  24.317  54.250  0.00  0.00    +0.000 OA
ENDROOT
TORSDOF 0
REMARK  Name = ../refined-set-2016/3t3u/3t3u_pocket.pdb
REMARK  234 active torsions:
REMARK  status: ('A' for Active; 'I' for Inactive)
REMARK    1  A    between atoms: _1  and  _3
REMARK    2  A    between atoms: _3  and  _4
REMARK    3  A    between atoms: _3  and  _6
REMARK    4  A    between atoms: _6  and  _7
REMARK    5  A    between atoms: _7  and  _8
REMARK    6  A    between atoms: _8  and  _9
REMARK    7  A    between atoms: _18  and  _20
REMARK    8  A    between atoms: _20  and  _21
REMARK    9  A    between atoms: _20  and  _23
REMARK   10  A    between atoms: _26  and  _28
REMARK   11  A    between atoms: _28  and  _29
REMARK   12  A    between atoms: _28  and  _31
REMARK   13  A    between atoms: _31  and  _32
REMARK   14  A    between atoms: _35  and  _37
REMARK   15  A    between atoms: _37  and  _38
REMARK   16  A    between atoms: _40  and  _42
REMARK   17  A    between atoms: _42  and  _43
REMARK   18  A    between atoms: _42  and  _45
REMARK   19  A    between atoms: _45  and  _46
REMARK   20  A    between atoms: _46  and  _47
REMARK   21  A    between atoms: _47  and  _48
REMARK   22  A    between atoms: _48  and  _49
REMARK   23  A    between atoms: _53  and  _55
REMARK   24  A    between atoms: _55  and  _56
REMARK   25  A    between atoms: _58  and  _60
REMARK   26  A    between atoms: _60  and  _61
REMARK   27  A    between atoms: _60  and  _63
REMARK   28  A    between atoms: _63  and  _64
REMARK   29  A    between atoms: _66  and  _68
REMARK   30  A    between atoms: _68  and  _69
REMARK   31  A    between atoms: _68  and  _71
REMARK   32  A    between atoms: _71  and  _72
REMARK   33  A    between atoms: _78  and  _80
REMARK   34  A    between atoms: _80  and  _81
REMARK   35  A    between atoms: _83  and  _85
REMARK   36  A    between atoms: _85  and  _86
REMARK   37  A    between atoms: _85  and  _88
REMARK   38  A    between atoms: _88  and  _89
REMARK   39  A    between atoms: _89  and  _90
REMARK   40  A    between atoms: _93  and  _95
REMARK   41  A    between atoms: _95  and  _96
REMARK   42  A    between atoms: _95  and  _98
REMARK   43  A    between atoms: _101  and  _103
REMARK   44  A    between atoms: _103  and  _104
REMARK   45  A    between atoms: _103  and  _106
REMARK   46  A    between atoms: _106  and  _107
REMARK   47  A    between atoms: _110  and  _112
REMARK   48  A    between atoms: _112  and  _113
REMARK   49  A    between atoms: _112  and  _115
REMARK   50  A    between atoms: _115  and  _116
REMARK   51  A    between atoms: _119  and  _121
REMARK   52  A    between atoms: _121  and  _122
REMARK   53  A    between atoms: _121  and  _124
REMARK   54  A    between atoms: _126  and  _128
REMARK   55  A    between atoms: _128  and  _129
REMARK   56  A    between atoms: _132  and  _134
REMARK   57  A    between atoms: _134  and  _135
REMARK   58  A    between atoms: _134  and  _137
REMARK   59  A    between atoms: _140  and  _142
REMARK   60  A    between atoms: _142  and  _143
REMARK   61  A    between atoms: _142  and  _145
REMARK   62  A    between atoms: _145  and  _146
REMARK   63  A    between atoms: _146  and  _147
REMARK   64  A    between atoms: _147  and  _148
REMARK   65  A    between atoms: _148  and  _149
REMARK   66  A    between atoms: _153  and  _155
REMARK   67  A    between atoms: _155  and  _156
REMARK   68  A    between atoms: _155  and  _158
REMARK   69  A    between atoms: _161  and  _163
REMARK   70  A    between atoms: _163  and  _164
REMARK   71  A    between atoms: _163  and  _166
REMARK   72  A    between atoms: _166  and  _167
REMARK   73  A    between atoms: _170  and  _172
REMARK   74  A    between atoms: _172  and  _173
REMARK   75  A    between atoms: _172  and  _175
REMARK   76  A    between atoms: _178  and  _180
REMARK   77  A    between atoms: _180  and  _181
REMARK   78  A    between atoms: _180  and  _183
REMARK   79  A    between atoms: _183  and  _184
REMARK   80  A    between atoms: _187  and  _189
REMARK   81  A    between atoms: _189  and  _190
REMARK   82  A    between atoms: _189  and  _192
REMARK   83  A    between atoms: _192  and  _193
REMARK   84  A    between atoms: _193  and  _194
REMARK   85  A    between atoms: _196  and  _198
REMARK   86  A    between atoms: _198  and  _199
REMARK   87  A    between atoms: _198  and  _201
REMARK   88  A    between atoms: _201  and  _202
REMARK   89  A    between atoms: _202  and  _203
REMARK   90  A    between atoms: _203  and  _204
REMARK   91  A    between atoms: _204  and  _205
REMARK   92  A    between atoms: _209  and  _211
REMARK   93  A    between atoms: _211  and  _212
REMARK   94  A    between atoms: _211  and  _214
REMARK   95  A    between atoms: _214  and  _215
REMARK   96  A    between atoms: _218  and  _220
REMARK   97  A    between atoms: _220  and  _221
REMARK   98  A    between atoms: _220  and  _223
REMARK   99  A    between atoms: _223  and  _224
REMARK  100  A    between atoms: _229  and  _230
REMARK  101  A    between atoms: _232  and  _234
REMARK  102  A    between atoms: _234  and  _235
REMARK  103  A    between atoms: _234  and  _237
REMARK  104  A    between atoms: _237  and  _238
REMARK  105  A    between atoms: _238  and  _239
REMARK  106  A    between atoms: _242  and  _244
REMARK  107  A    between atoms: _244  and  _245
REMARK  108  A    between atoms: _244  and  _247
REMARK  109  A    between atoms: _247  and  _248
REMARK  110  A    between atoms: _254  and  _256
REMARK  111  A    between atoms: _256  and  _257
REMARK  112  A    between atoms: _256  and  _259
REMARK  113  A    between atoms: _259  and  _260
REMARK  114  A    between atoms: _265  and  _266
REMARK  115  A    between atoms: _268  and  _270
REMARK  116  A    between atoms: _270  and  _271
REMARK  117  A    between atoms: _270  and  _273
REMARK  118  A    between atoms: _273  and  _274
REMARK  119  A    between atoms: _277  and  _279
REMARK  120  A    between atoms: _279  and  _280
REMARK  121  A    between atoms: _279  and  _282
REMARK  122  A    between atoms: _285  and  _287
REMARK  123  A    between atoms: _287  and  _288
REMARK  124  A    between atoms: _290  and  _292
REMARK  125  A    between atoms: _292  and  _293
REMARK  126  A    between atoms: _292  and  _295
REMARK  127  A    between atoms: _295  and  _296
REMARK  128  A    between atoms: _296  and  _297
REMARK  129  A    between atoms: _300  and  _302
REMARK  130  A    between atoms: _302  and  _303
REMARK  131  A    between atoms: _302  and  _305
REMARK  132  A    between atoms: _308  and  _310
REMARK  133  A    between atoms: _310  and  _311
REMARK  134  A    between atoms: _310  and  _313
REMARK  135  A    between atoms: _313  and  _314
REMARK  136  A    between atoms: _319  and  _320
REMARK  137  A    between atoms: _322  and  _324
REMARK  138  A    between atoms: _324  and  _325
REMARK  139  A    between atoms: _324  and  _327
REMARK  140  A    between atoms: _327  and  _328
REMARK  141  A    between atoms: _331  and  _333
REMARK  142  A    between atoms: _333  and  _334
REMARK  143  A    between atoms: _336  and  _338
REMARK  144  A    between atoms: _338  and  _339
REMARK  145  A    between atoms: _341  and  _343
REMARK  146  A    between atoms: _343  and  _344
REMARK  147  A    between atoms: _343  and  _346
REMARK  148  A    between atoms: _346  and  _347
REMARK  149  A    between atoms: _347  and  _348
REMARK  150  A    between atoms: _351  and  _353
REMARK  151  A    between atoms: _353  and  _354
REMARK  152  A    between atoms: _353  and  _356
REMARK  153  A    between atoms: _356  and  _357
REMARK  154  A    between atoms: _360  and  _362
REMARK  155  A    between atoms: _362  and  _363
REMARK  156  A    between atoms: _362  and  _365
REMARK  157  A    between atoms: _365  and  _366
REMARK  158  A    between atoms: _369  and  _371
REMARK  159  A    between atoms: _371  and  _372
REMARK  160  A    between atoms: _371  and  _374
REMARK  161  A    between atoms: _374  and  _375
REMARK  162  A    between atoms: _380  and  _382
REMARK  163  A    between atoms: _382  and  _383
REMARK  164  A    between atoms: _382  and  _385
REMARK  165  A    between atoms: _385  and  _386
REMARK  166  A    between atoms: _386  and  _387
REMARK  167  A    between atoms: _387  and  _388
REMARK  168  A    between atoms: _388  and  _389
REMARK  169  A    between atoms: _394  and  _395
REMARK  170  A    between atoms: _400  and  _402
REMARK  171  A    between atoms: _402  and  _403
REMARK  172  A    between atoms: _402  and  _405
REMARK  173  A    between atoms: _405  and  _406
REMARK  174  A    between atoms: _406  and  _407
REMARK  175  A    between atoms: _410  and  _412
REMARK  176  A    between atoms: _412  and  _413
REMARK  177  A    between atoms: _412  and  _415
REMARK  178  A    between atoms: _415  and  _416
REMARK  179  A    between atoms: _421  and  _423
REMARK  180  A    between atoms: _423  and  _424
REMARK  181  A    between atoms: _423  and  _426
REMARK  182  A    between atoms: _426  and  _427
REMARK  183  A    between atoms: _430  and  _432
REMARK  184  A    between atoms: _432  and  _433
REMARK  185  A    between atoms: _432  and  _435
REMARK  186  A    between atoms: _435  and  _436
REMARK  187  A    between atoms: _439  and  _441
REMARK  188  A    between atoms: _441  and  _442
REMARK  189  A    between atoms: _441  and  _444
REMARK  190  A    between atoms: _444  and  _445
REMARK  191  A    between atoms: _448  and  _450
REMARK  192  A    between atoms: _450  and  _451
REMARK  193  A    between atoms: _450  and  _453
REMARK  194  A    between atoms: _453  and  _454
REMARK  195  A    between atoms: _454  and  _455
REMARK  196  A    between atoms: _455  and  _456
REMARK  197  A    between atoms: _465  and  _467
REMARK  198  A    between atoms: _467  and  _468
REMARK  199  A    between atoms: _467  and  _470
REMARK  200  A    between atoms: _470  and  _471
REMARK  201  A    between atoms: _474  and  _476
REMARK  202  A    between atoms: _476  and  _477
REMARK  203  A    between atoms: _476  and  _479
REMARK  204  A    between atoms: _479  and  _480
REMARK  205  A    between atoms: _483  and  _485
REMARK  206  A    between atoms: _485  and  _486
REMARK  207  A    between atoms: _485  and  _488
REMARK  208  A    between atoms: _488  and  _489
REMARK  209  A    between atoms: _492  and  _494
REMARK  210  A    between atoms: _494  and  _495
REMARK  211  A    between atoms: _494  and  _497
REMARK  212  A    between atoms: _497  and  _498
REMARK  213  A    between atoms: _504  and  _506
REMARK  214  A    between atoms: _506  and  _507
REMARK  215  A    between atoms: _509  and  _511
REMARK  216  A    between atoms: _511  and  _512
REMARK  217  A    between atoms: _511  and  _514
REMARK  218  A    between atoms: _514  and  _515
REMARK  219  A    between atoms: _518  and  _520
REMARK  220  A    between atoms: _520  and  _521
REMARK  221  A    between atoms: _520  and  _523
REMARK  222  A    between atoms: _523  and  _524
REMARK  223  A    between atoms: _530  and  _532
REMARK  224  A    between atoms: _532  and  _533
REMARK  225  A    between atoms: _532  and  _535
REMARK  226  A    between atoms: _535  and  _536
REMARK  227  A    between atoms: _536  and  _537
REMARK  228  A    between atoms: _537  and  _538
REMARK  229  A    between atoms: _538  and  _539
REMARK  230  A    between atoms: _543  and  _545
REMARK  231  A    between atoms: _545  and  _546
REMARK  232  A    between atoms: _545  and  _548
REMARK  233  A    between atoms: _548  and  _549
REMARK  234  A    between atoms: _549  and  _550
REMARK                            x       y       z     vdW  Elec       q    Type
REMARK                         _______ _______ _______ _____ _____    ______ ____
ROOT
ATOM      1  O   HOH     1      25.458  15.627  60.606  0.00  0.00    +0.000 OA
ENDROOT
TORSDOF 0
REMARK  Name = ../refined-set-2016/3t3u/3t3u_pocket.pdb
REMARK  234 active torsions:
REMARK  status: ('A' for Active; 'I' for Inactive)
REMARK    1  A    between atoms: _1  and  _3
REMARK    2  A    between atoms: _3  and  _4
REMARK    3  A    between atoms: _3  and  _6
REMARK    4  A    between atoms: _6  and  _7
REMARK    5  A    between atoms: _7  and  _8
REMARK    6  A    between atoms: _8  and  _9
REMARK    7  A    between atoms: _18  and  _20
REMARK    8  A    between atoms: _20  and  _21
REMARK    9  A    between atoms: _20  and  _23
REMARK   10  A    between atoms: _26  and  _28
REMARK   11  A    between atoms: _28  and  _29
REMARK   12  A    between atoms: _28  and  _31
REMARK   13  A    between atoms: _31  and  _32
REMARK   14  A    between atoms: _35  and  _37
REMARK   15  A    between atoms: _37  and  _38
REMARK   16  A    between atoms: _40  and  _42
REMARK   17  A    between atoms: _42  and  _43
REMARK   18  A    between atoms: _42  and  _45
REMARK   19  A    between atoms: _45  and  _46
REMARK   20  A    between atoms: _46  and  _47
REMARK   21  A    between atoms: _47  and  _48
REMARK   22  A    between atoms: _48  and  _49
REMARK   23  A    between atoms: _53  and  _55
REMARK   24  A    between atoms: _55  and  _56
REMARK   25  A    between atoms: _58  and  _60
REMARK   26  A    between atoms: _60  and  _61
REMARK   27  A    between atoms: _60  and  _63
REMARK   28  A    between atoms: _63  and  _64
REMARK   29  A    between atoms: _66  and  _68
REMARK   30  A    between atoms: _68  and  _69
REMARK   31  A    between atoms: _68  and  _71
REMARK   32  A    between atoms: _71  and  _72
REMARK   33  A    between atoms: _78  and  _80
REMARK   34  A    between atoms: _80  and  _81
REMARK   35  A    between atoms: _83  and  _85
REMARK   36  A    between atoms: _85  and  _86
REMARK   37  A    between atoms: _85  and  _88
REMARK   38  A    between atoms: _88  and  _89
REMARK   39  A    between atoms: _89  and  _90
REMARK   40  A    between atoms: _93  and  _95
REMARK   41  A    between atoms: _95  and  _96
REMARK   42  A    between atoms: _95  and  _98
REMARK   43  A    between atoms: _101  and  _103
REMARK   44  A    between atoms: _103  and  _104
REMARK   45  A    between atoms: _103  and  _106
REMARK   46  A    between atoms: _106  and  _107
REMARK   47  A    between atoms: _110  and  _112
REMARK   48  A    between atoms: _112  and  _113
REMARK   49  A    between atoms: _112  and  _115
REMARK   50  A    between atoms: _115  and  _116
REMARK   51  A    between atoms: _119  and  _121
REMARK   52  A    between atoms: _121  and  _122
REMARK   53  A    between atoms: _121  and  _124
REMARK   54  A    between atoms: _126  and  _128
REMARK   55  A    between atoms: _128  and  _129
REMARK   56  A    between atoms: _132  and  _134
REMARK   57  A    between atoms: _134  and  _135
REMARK   58  A    between atoms: _134  and  _137
REMARK   59  A    between atoms: _140  and  _142
REMARK   60  A    between atoms: _142  and  _143
REMARK   61  A    between atoms: _142  and  _145
REMARK   62  A    between atoms: _145  and  _146
REMARK   63  A    between atoms: _146  and  _147
REMARK   64  A    between atoms: _147  and  _148
REMARK   65  A    between atoms: _148  and  _149
REMARK   66  A    between atoms: _153  and  _155
REMARK   67  A    between atoms: _155  and  _156
REMARK   68  A    between atoms: _155  and  _158
REMARK   69  A    between atoms: _161  and  _163
REMARK   70  A    between atoms: _163  and  _164
REMARK   71  A    between atoms: _163  and  _166
REMARK   72  A    between atoms: _166  and  _167
REMARK   73  A    between atoms: _170  and  _172
REMARK   74  A    between atoms: _172  and  _173
REMARK   75  A    between atoms: _172  and  _175
REMARK   76  A    between atoms: _178  and  _180
REMARK   77  A    between atoms: _180  and  _181
REMARK   78  A    between atoms: _180  and  _183
REMARK   79  A    between atoms: _183  and  _184
REMARK   80  A    between atoms: _187  and  _189
REMARK   81  A    between atoms: _189  and  _190
REMARK   82  A    between atoms: _189  and  _192
REMARK   83  A    between atoms: _192  and  _193
REMARK   84  A    between atoms: _193  and  _194
REMARK   85  A    between atoms: _196  and  _198
REMARK   86  A    between atoms: _198  and  _199
REMARK   87  A    between atoms: _198  and  _201
REMARK   88  A    between atoms: _201  and  _202
REMARK   89  A    between atoms: _202  and  _203
REMARK   90  A    between atoms: _203  and  _204
REMARK   91  A    between atoms: _204  and  _205
REMARK   92  A    between atoms: _209  and  _211
REMARK   93  A    between atoms: _211  and  _212
REMARK   94  A    between atoms: _211  and  _214
REMARK   95  A    between atoms: _214  and  _215
REMARK   96  A    between atoms: _218  and  _220
REMARK   97  A    between atoms: _220  and  _221
REMARK   98  A    between atoms: _220  and  _223
REMARK   99  A    between atoms: _223  and  _224
REMARK  100  A    between atoms: _229  and  _230
REMARK  101  A    between atoms: _232  and  _234
REMARK  102  A    between atoms: _234  and  _235
REMARK  103  A    between atoms: _234  and  _237
REMARK  104  A    between atoms: _237  and  _238
REMARK  105  A    between atoms: _238  and  _239
REMARK  106  A    between atoms: _242  and  _244
REMARK  107  A    between atoms: _244  and  _245
REMARK  108  A    between atoms: _244  and  _247
REMARK  109  A    between atoms: _247  and  _248
REMARK  110  A    between atoms: _254  and  _256
REMARK  111  A    between atoms: _256  and  _257
REMARK  112  A    between atoms: _256  and  _259
REMARK  113  A    between atoms: _259  and  _260
REMARK  114  A    between atoms: _265  and  _266
REMARK  115  A    between atoms: _268  and  _270
REMARK  116  A    between atoms: _270  and  _271
REMARK  117  A    between atoms: _270  and  _273
REMARK  118  A    between atoms: _273  and  _274
REMARK  119  A    between atoms: _277  and  _279
REMARK  120  A    between atoms: _279  and  _280
REMARK  121  A    between atoms: _279  and  _282
REMARK  122  A    between atoms: _285  and  _287
REMARK  123  A    between atoms: _287  and  _288
REMARK  124  A    between atoms: _290  and  _292
REMARK  125  A    between atoms: _292  and  _293
REMARK  126  A    between atoms: _292  and  _295
REMARK  127  A    between atoms: _295  and  _296
REMARK  128  A    between atoms: _296  and  _297
REMARK  129  A    between atoms: _300  and  _302
REMARK  130  A    between atoms: _302  and  _303
REMARK  131  A    between atoms: _302  and  _305
REMARK  132  A    between atoms: _308  and  _310
REMARK  133  A    between atoms: _310  and  _311
REMARK  134  A    between atoms: _310  and  _313
REMARK  135  A    between atoms: _313  and  _314
REMARK  136  A    between atoms: _319  and  _320
REMARK  137  A    between atoms: _322  and  _324
REMARK  138  A    between atoms: _324  and  _325
REMARK  139  A    between atoms: _324  and  _327
REMARK  140  A    between atoms: _327  and  _328
REMARK  141  A    between atoms: _331  and  _333
REMARK  142  A    between atoms: _333  and  _334
REMARK  143  A    between atoms: _336  and  _338
REMARK  144  A    between atoms: _338  and  _339
REMARK  145  A    between atoms: _341  and  _343
REMARK  146  A    between atoms: _343  and  _344
REMARK  147  A    between atoms: _343  and  _346
REMARK  148  A    between atoms: _346  and  _347
REMARK  149  A    between atoms: _347  and  _348
REMARK  150  A    between atoms: _351  and  _353
REMARK  151  A    between atoms: _353  and  _354
REMARK  152  A    between atoms: _353  and  _356
REMARK  153  A    between atoms: _356  and  _357
REMARK  154  A    between atoms: _360  and  _362
REMARK  155  A    between atoms: _362  and  _363
REMARK  156  A    between atoms: _362  and  _365
REMARK  157  A    between atoms: _365  and  _366
REMARK  158  A    between atoms: _369  and  _371
REMARK  159  A    between atoms: _371  and  _372
REMARK  160  A    between atoms: _371  and  _374
REMARK  161  A    between atoms: _374  and  _375
REMARK  162  A    between atoms: _380  and  _382
REMARK  163  A    between atoms: _382  and  _383
REMARK  164  A    between atoms: _382  and  _385
REMARK  165  A    between atoms: _385  and  _386
REMARK  166  A    between atoms: _386  and  _387
REMARK  167  A    between atoms: _387  and  _388
REMARK  168  A    between atoms: _388  and  _389
REMARK  169  A    between atoms: _394  and  _395
REMARK  170  A    between atoms: _400  and  _402
REMARK  171  A    between atoms: _402  and  _403
REMARK  172  A    between atoms: _402  and  _405
REMARK  173  A    between atoms: _405  and  _406
REMARK  174  A    between atoms: _406  and  _407
REMARK  175  A    between atoms: _410  and  _412
REMARK  176  A    between atoms: _412  and  _413
REMARK  177  A    between atoms: _412  and  _415
REMARK  178  A    between atoms: _415  and  _416
REMARK  179  A    between atoms: _421  and  _423
REMARK  180  A    between atoms: _423  and  _424
REMARK  181  A    between atoms: _423  and  _426
REMARK  182  A    between atoms: _426  and  _427
REMARK  183  A    between atoms: _430  and  _432
REMARK  184  A    between atoms: _432  and  _433
REMARK  185  A    between atoms: _432  and  _435
REMARK  186  A    between atoms: _435  and  _436
REMARK  187  A    between atoms: _439  and  _441
REMARK  188  A    between atoms: _441  and  _442
REMARK  189  A    between atoms: _441  and  _444
REMARK  190  A    between atoms: _444  and  _445
REMARK  191  A    between atoms: _448  and  _450
REMARK  192  A    between atoms: _450  and  _451
REMARK  193  A    between atoms: _450  and  _453
REMARK  194  A    between atoms: _453  and  _454
REMARK  195  A    between atoms: _454  and  _455
REMARK  196  A    between atoms: _455  and  _456
REMARK  197  A    between atoms: _465  and  _467
REMARK  198  A    between atoms: _467  and  _468
REMARK  199  A    between atoms: _467  and  _470
REMARK  200  A    between atoms: _470  and  _471
REMARK  201  A    between atoms: _474  and  _476
REMARK  202  A    between atoms: _476  and  _477
REMARK  203  A    between atoms: _476  and  _479
REMARK  204  A    between atoms: _479  and  _480
REMARK  205  A    between atoms: _483  and  _485
REMARK  206  A    between atoms: _485  and  _486
REMARK  207  A    between atoms: _485  and  _488
REMARK  208  A    between atoms: _488  and  _489
REMARK  209  A    between atoms: _492  and  _494
REMARK  210  A    between atoms: _494  and  _495
REMARK  211  A    between atoms: _494  and  _497
REMARK  212  A    between atoms: _497  and  _498
REMARK  213  A    between atoms: _504  and  _506
REMARK  214  A    between atoms: _506  and  _507
REMARK  215  A    between atoms: _509  and  _511
REMARK  216  A    between atoms: _511  and  _512
REMARK  217  A    between atoms: _511  and  _514
REMARK  218  A    between atoms: _514  and  _515
REMARK  219  A    between atoms: _518  and  _520
REMARK  220  A    between atoms: _520  and  _521
REMARK  221  A    between atoms: _520  and  _523
REMARK  222  A    between atoms: _523  and  _524
REMARK  223  A    between atoms: _530  and  _532
REMARK  224  A    between atoms: _532  and  _533
REMARK  225  A    between atoms: _532  and  _535
REMARK  226  A    between atoms: _535  and  _536
REMARK  227  A    between atoms: _536  and  _537
REMARK  228  A    between atoms: _537  and  _538
REMARK  229  A    between atoms: _538  and  _539
REMARK  230  A    between atoms: _543  and  _545
REMARK  231  A    between atoms: _545  and  _546
REMARK  232  A    between atoms: _545  and  _548
REMARK  233  A    between atoms: _548  and  _549
REMARK  234  A    between atoms: _549  and  _550
REMARK                            x       y       z     vdW  Elec       q    Type
REMARK                         _______ _______ _______ _____ _____    ______ ____
ROOT
ATOM      1  O   HOH     1      29.179  14.571  61.086  0.00  0.00    +0.000 OA
ENDROOT
TORSDOF 0
REMARK  Name = ../refined-set-2016/3t3u/3t3u_pocket.pdb
REMARK  234 active torsions:
REMARK  status: ('A' for Active; 'I' for Inactive)
REMARK    1  A    between atoms: _1  and  _3
REMARK    2  A    between atoms: _3  and  _4
REMARK    3  A    between atoms: _3  and  _6
REMARK    4  A    between atoms: _6  and  _7
REMARK    5  A    between atoms: _7  and  _8
REMARK    6  A    between atoms: _8  and  _9
REMARK    7  A    between atoms: _18  and  _20
REMARK    8  A    between atoms: _20  and  _21
REMARK    9  A    between atoms: _20  and  _23
REMARK   10  A    between atoms: _26  and  _28
REMARK   11  A    between atoms: _28  and  _29
REMARK   12  A    between atoms: _28  and  _31
REMARK   13  A    between atoms: _31  and  _32
REMARK   14  A    between atoms: _35  and  _37
REMARK   15  A    between atoms: _37  and  _38
REMARK   16  A    between atoms: _40  and  _42
REMARK   17  A    between atoms: _42  and  _43
REMARK   18  A    between atoms: _42  and  _45
REMARK   19  A    between atoms: _45  and  _46
REMARK   20  A    between atoms: _46  and  _47
REMARK   21  A    between atoms: _47  and  _48
REMARK   22  A    between atoms: _48  and  _49
REMARK   23  A    between atoms: _53  and  _55
REMARK   24  A    between atoms: _55  and  _56
REMARK   25  A    between atoms: _58  and  _60
REMARK   26  A    between atoms: _60  and  _61
REMARK   27  A    between atoms: _60  and  _63
REMARK   28  A    between atoms: _63  and  _64
REMARK   29  A    between atoms: _66  and  _68
REMARK   30  A    between atoms: _68  and  _69
REMARK   31  A    between atoms: _68  and  _71
REMARK   32  A    between atoms: _71  and  _72
REMARK   33  A    between atoms: _78  and  _80
REMARK   34  A    between atoms: _80  and  _81
REMARK   35  A    between atoms: _83  and  _85
REMARK   36  A    between atoms: _85  and  _86
REMARK   37  A    between atoms: _85  and  _88
REMARK   38  A    between atoms: _88  and  _89
REMARK   39  A    between atoms: _89  and  _90
REMARK   40  A    between atoms: _93  and  _95
REMARK   41  A    between atoms: _95  and  _96
REMARK   42  A    between atoms: _95  and  _98
REMARK   43  A    between atoms: _101  and  _103
REMARK   44  A    between atoms: _103  and  _104
REMARK   45  A    between atoms: _103  and  _106
REMARK   46  A    between atoms: _106  and  _107
REMARK   47  A    between atoms: _110  and  _112
REMARK   48  A    between atoms: _112  and  _113
REMARK   49  A    between atoms: _112  and  _115
REMARK   50  A    between atoms: _115  and  _116
REMARK   51  A    between atoms: _119  and  _121
REMARK   52  A    between atoms: _121  and  _122
REMARK   53  A    between atoms: _121  and  _124
REMARK   54  A    between atoms: _126  and  _128
REMARK   55  A    between atoms: _128  and  _129
REMARK   56  A    between atoms: _132  and  _134
REMARK   57  A    between atoms: _134  and  _135
REMARK   58  A    between atoms: _134  and  _137
REMARK   59  A    between atoms: _140  and  _142
REMARK   60  A    between atoms: _142  and  _143
REMARK   61  A    between atoms: _142  and  _145
REMARK   62  A    between atoms: _145  and  _146
REMARK   63  A    between atoms: _146  and  _147
REMARK   64  A    between atoms: _147  and  _148
REMARK   65  A    between atoms: _148  and  _149
REMARK   66  A    between atoms: _153  and  _155
REMARK   67  A    between atoms: _155  and  _156
REMARK   68  A    between atoms: _155  and  _158
REMARK   69  A    between atoms: _161  and  _163
REMARK   70  A    between atoms: _163  and  _164
REMARK   71  A    between atoms: _163  and  _166
REMARK   72  A    between atoms: _166  and  _167
REMARK   73  A    between atoms: _170  and  _172
REMARK   74  A    between atoms: _172  and  _173
REMARK   75  A    between atoms: _172  and  _175
REMARK   76  A    between atoms: _178  and  _180
REMARK   77  A    between atoms: _180  and  _181
REMARK   78  A    between atoms: _180  and  _183
REMARK   79  A    between atoms: _183  and  _184
REMARK   80  A    between atoms: _187  and  _189
REMARK   81  A    between atoms: _189  and  _190
REMARK   82  A    between atoms: _189  and  _192
REMARK   83  A    between atoms: _192  and  _193
REMARK   84  A    between atoms: _193  and  _194
REMARK   85  A    between atoms: _196  and  _198
REMARK   86  A    between atoms: _198  and  _199
REMARK   87  A    between atoms: _198  and  _201
REMARK   88  A    between atoms: _201  and  _202
REMARK   89  A    between atoms: _202  and  _203
REMARK   90  A    between atoms: _203  and  _204
REMARK   91  A    between atoms: _204  and  _205
REMARK   92  A    between atoms: _209  and  _211
REMARK   93  A    between atoms: _211  and  _212
REMARK   94  A    between atoms: _211  and  _214
REMARK   95  A    between atoms: _214  and  _215
REMARK   96  A    between atoms: _218  and  _220
REMARK   97  A    between atoms: _220  and  _221
REMARK   98  A    between atoms: _220  and  _223
REMARK   99  A    between atoms: _223  and  _224
REMARK  100  A    between atoms: _229  and  _230
REMARK  101  A    between atoms: _232  and  _234
REMARK  102  A    between atoms: _234  and  _235
REMARK  103  A    between atoms: _234  and  _237
REMARK  104  A    between atoms: _237  and  _238
REMARK  105  A    between atoms: _238  and  _239
REMARK  106  A    between atoms: _242  and  _244
REMARK  107  A    between atoms: _244  and  _245
REMARK  108  A    between atoms: _244  and  _247
REMARK  109  A    between atoms: _247  and  _248
REMARK  110  A    between atoms: _254  and  _256
REMARK  111  A    between atoms: _256  and  _257
REMARK  112  A    between atoms: _256  and  _259
REMARK  113  A    between atoms: _259  and  _260
REMARK  114  A    between atoms: _265  and  _266
REMARK  115  A    between atoms: _268  and  _270
REMARK  116  A    between atoms: _270  and  _271
REMARK  117  A    between atoms: _270  and  _273
REMARK  118  A    between atoms: _273  and  _274
REMARK  119  A    between atoms: _277  and  _279
REMARK  120  A    between atoms: _279  and  _280
REMARK  121  A    between atoms: _279  and  _282
REMARK  122  A    between atoms: _285  and  _287
REMARK  123  A    between atoms: _287  and  _288
REMARK  124  A    between atoms: _290  and  _292
REMARK  125  A    between atoms: _292  and  _293
REMARK  126  A    between atoms: _292  and  _295
REMARK  127  A    between atoms: _295  and  _296
REMARK  128  A    between atoms: _296  and  _297
REMARK  129  A    between atoms: _300  and  _302
REMARK  130  A    between atoms: _302  and  _303
REMARK  131  A    between atoms: _302  and  _305
REMARK  132  A    between atoms: _308  and  _310
REMARK  133  A    between atoms: _310  and  _311
REMARK  134  A    between atoms: _310  and  _313
REMARK  135  A    between atoms: _313  and  _314
REMARK  136  A    between atoms: _319  and  _320
REMARK  137  A    between atoms: _322  and  _324
REMARK  138  A    between atoms: _324  and  _325
REMARK  139  A    between atoms: _324  and  _327
REMARK  140  A    between atoms: _327  and  _328
REMARK  141  A    between atoms: _331  and  _333
REMARK  142  A    between atoms: _333  and  _334
REMARK  143  A    between atoms: _336  and  _338
REMARK  144  A    between atoms: _338  and  _339
REMARK  145  A    between atoms: _341  and  _343
REMARK  146  A    between atoms: _343  and  _344
REMARK  147  A    between atoms: _343  and  _346
REMARK  148  A    between atoms: _346  and  _347
REMARK  149  A    between atoms: _347  and  _348
REMARK  150  A    between atoms: _351  and  _353
REMARK  151  A    between atoms: _353  and  _354
REMARK  152  A    between atoms: _353  and  _356
REMARK  153  A    between atoms: _356  and  _357
REMARK  154  A    between atoms: _360  and  _362
REMARK  155  A    between atoms: _362  and  _363
REMARK  156  A    between atoms: _362  and  _365
REMARK  157  A    between atoms: _365  and  _366
REMARK  158  A    between atoms: _369  and  _371
REMARK  159  A    between atoms: _371  and  _372
REMARK  160  A    between atoms: _371  and  _374
REMARK  161  A    between atoms: _374  and  _375
REMARK  162  A    between atoms: _380  and  _382
REMARK  163  A    between atoms: _382  and  _383
REMARK  164  A    between atoms: _382  and  _385
REMARK  165  A    between atoms: _385  and  _386
REMARK  166  A    between atoms: _386  and  _387
REMARK  167  A    between atoms: _387  and  _388
REMARK  168  A    between atoms: _388  and  _389
REMARK  169  A    between atoms: _394  and  _395
REMARK  170  A    between atoms: _400  and  _402
REMARK  171  A    between atoms: _402  and  _403
REMARK  172  A    between atoms: _402  and  _405
REMARK  173  A    between atoms: _405  and  _406
REMARK  174  A    between atoms: _406  and  _407
REMARK  175  A    between atoms: _410  and  _412
REMARK  176  A    between atoms: _412  and  _413
REMARK  177  A    between atoms: _412  and  _415
REMARK  178  A    between atoms: _415  and  _416
REMARK  179  A    between atoms: _421  and  _423
REMARK  180  A    between atoms: _423  and  _424
REMARK  181  A    between atoms: _423  and  _426
REMARK  182  A    between atoms: _426  and  _427
REMARK  183  A    between atoms: _430  and  _432
REMARK  184  A    between atoms: _432  and  _433
REMARK  185  A    between atoms: _432  and  _435
REMARK  186  A    between atoms: _435  and  _436
REMARK  187  A    between atoms: _439  and  _441
REMARK  188  A    between atoms: _441  and  _442
REMARK  189  A    between atoms: _441  and  _444
REMARK  190  A    between atoms: _444  and  _445
REMARK  191  A    between atoms: _448  and  _450
REMARK  192  A    between atoms: _450  and  _451
REMARK  193  A    between atoms: _450  and  _453
REMARK  194  A    between atoms: _453  and  _454
REMARK  195  A    between atoms: _454  and  _455
REMARK  196  A    between atoms: _455  and  _456
REMARK  197  A    between atoms: _465  and  _467
REMARK  198  A    between atoms: _467  and  _468
REMARK  199  A    between atoms: _467  and  _470
REMARK  200  A    between atoms: _470  and  _471
REMARK  201  A    between atoms: _474  and  _476
REMARK  202  A    between atoms: _476  and  _477
REMARK  203  A    between atoms: _476  and  _479
REMARK  204  A    between atoms: _479  and  _480
REMARK  205  A    between atoms: _483  and  _485
REMARK  206  A    between atoms: _485  and  _486
REMARK  207  A    between atoms: _485  and  _488
REMARK  208  A    between atoms: _488  and  _489
REMARK  209  A    between atoms: _492  and  _494
REMARK  210  A    between atoms: _494  and  _495
REMARK  211  A    between atoms: _494  and  _497
REMARK  212  A    between atoms: _497  and  _498
REMARK  213  A    between atoms: _504  and  _506
REMARK  214  A    between atoms: _506  and  _507
REMARK  215  A    between atoms: _509  and  _511
REMARK  216  A    between atoms: _511  and  _512
REMARK  217  A    between atoms: _511  and  _514
REMARK  218  A    between atoms: _514  and  _515
REMARK  219  A    between atoms: _518  and  _520
REMARK  220  A    between atoms: _520  and  _521
REMARK  221  A    between atoms: _520  and  _523
REMARK  222  A    between atoms: _523  and  _524
REMARK  223  A    between atoms: _530  and  _532
REMARK  224  A    between atoms: _532  and  _533
REMARK  225  A    between atoms: _532  and  _535
REMARK  226  A    between atoms: _535  and  _536
REMARK  227  A    between atoms: _536  and  _537
REMARK  228  A    between atoms: _537  and  _538
REMARK  229  A    between atoms: _538  and  _539
REMARK  230  A    between atoms: _543  and  _545
REMARK  231  A    between atoms: _545  and  _546
REMARK  232  A    between atoms: _545  and  _548
REMARK  233  A    between atoms: _548  and  _549
REMARK  234  A    between atoms: _549  and  _550
REMARK                            x       y       z     vdW  Elec       q    Type
REMARK                         _______ _______ _______ _____ _____    ______ ____
ROOT
ATOM      1  O   HOH     1      25.280  12.687  60.376  0.00  0.00    +0.000 OA
ENDROOT
TORSDOF 0
REMARK  Name = ../refined-set-2016/3t3u/3t3u_pocket.pdb
REMARK  234 active torsions:
REMARK  status: ('A' for Active; 'I' for Inactive)
REMARK    1  A    between atoms: _1  and  _3
REMARK    2  A    between atoms: _3  and  _4
REMARK    3  A    between atoms: _3  and  _6
REMARK    4  A    between atoms: _6  and  _7
REMARK    5  A    between atoms: _7  and  _8
REMARK    6  A    between atoms: _8  and  _9
REMARK    7  A    between atoms: _18  and  _20
REMARK    8  A    between atoms: _20  and  _21
REMARK    9  A    between atoms: _20  and  _23
REMARK   10  A    between atoms: _26  and  _28
REMARK   11  A    between atoms: _28  and  _29
REMARK   12  A    between atoms: _28  and  _31
REMARK   13  A    between atoms: _31  and  _32
REMARK   14  A    between atoms: _35  and  _37
REMARK   15  A    between atoms: _37  and  _38
REMARK   16  A    between atoms: _40  and  _42
REMARK   17  A    between atoms: _42  and  _43
REMARK   18  A    between atoms: _42  and  _45
REMARK   19  A    between atoms: _45  and  _46
REMARK   20  A    between atoms: _46  and  _47
REMARK   21  A    between atoms: _47  and  _48
REMARK   22  A    between atoms: _48  and  _49
REMARK   23  A    between atoms: _53  and  _55
REMARK   24  A    between atoms: _55  and  _56
REMARK   25  A    between atoms: _58  and  _60
REMARK   26  A    between atoms: _60  and  _61
REMARK   27  A    between atoms: _60  and  _63
REMARK   28  A    between atoms: _63  and  _64
REMARK   29  A    between atoms: _66  and  _68
REMARK   30  A    between atoms: _68  and  _69
REMARK   31  A    between atoms: _68  and  _71
REMARK   32  A    between atoms: _71  and  _72
REMARK   33  A    between atoms: _78  and  _80
REMARK   34  A    between atoms: _80  and  _81
REMARK   35  A    between atoms: _83  and  _85
REMARK   36  A    between atoms: _85  and  _86
REMARK   37  A    between atoms: _85  and  _88
REMARK   38  A    between atoms: _88  and  _89
REMARK   39  A    between atoms: _89  and  _90
REMARK   40  A    between atoms: _93  and  _95
REMARK   41  A    between atoms: _95  and  _96
REMARK   42  A    between atoms: _95  and  _98
REMARK   43  A    between atoms: _101  and  _103
REMARK   44  A    between atoms: _103  and  _104
REMARK   45  A    between atoms: _103  and  _106
REMARK   46  A    between atoms: _106  and  _107
REMARK   47  A    between atoms: _110  and  _112
REMARK   48  A    between atoms: _112  and  _113
REMARK   49  A    between atoms: _112  and  _115
REMARK   50  A    between atoms: _115  and  _116
REMARK   51  A    between atoms: _119  and  _121
REMARK   52  A    between atoms: _121  and  _122
REMARK   53  A    between atoms: _121  and  _124
REMARK   54  A    between atoms: _126  and  _128
REMARK   55  A    between atoms: _128  and  _129
REMARK   56  A    between atoms: _132  and  _134
REMARK   57  A    between atoms: _134  and  _135
REMARK   58  A    between atoms: _134  and  _137
REMARK   59  A    between atoms: _140  and  _142
REMARK   60  A    between atoms: _142  and  _143
REMARK   61  A    between atoms: _142  and  _145
REMARK   62  A    between atoms: _145  and  _146
REMARK   63  A    between atoms: _146  and  _147
REMARK   64  A    between atoms: _147  and  _148
REMARK   65  A    between atoms: _148  and  _149
REMARK   66  A    between atoms: _153  and  _155
REMARK   67  A    between atoms: _155  and  _156
REMARK   68  A    between atoms: _155  and  _158
REMARK   69  A    between atoms: _161  and  _163
REMARK   70  A    between atoms: _163  and  _164
REMARK   71  A    between atoms: _163  and  _166
REMARK   72  A    between atoms: _166  and  _167
REMARK   73  A    between atoms: _170  and  _172
REMARK   74  A    between atoms: _172  and  _173
REMARK   75  A    between atoms: _172  and  _175
REMARK   76  A    between atoms: _178  and  _180
REMARK   77  A    between atoms: _180  and  _181
REMARK   78  A    between atoms: _180  and  _183
REMARK   79  A    between atoms: _183  and  _184
REMARK   80  A    between atoms: _187  and  _189
REMARK   81  A    between atoms: _189  and  _190
REMARK   82  A    between atoms: _189  and  _192
REMARK   83  A    between atoms: _192  and  _193
REMARK   84  A    between atoms: _193  and  _194
REMARK   85  A    between atoms: _196  and  _198
REMARK   86  A    between atoms: _198  and  _199
REMARK   87  A    between atoms: _198  and  _201
REMARK   88  A    between atoms: _201  and  _202
REMARK   89  A    between atoms: _202  and  _203
REMARK   90  A    between atoms: _203  and  _204
REMARK   91  A    between atoms: _204  and  _205
REMARK   92  A    between atoms: _209  and  _211
REMARK   93  A    between atoms: _211  and  _212
REMARK   94  A    between atoms: _211  and  _214
REMARK   95  A    between atoms: _214  and  _215
REMARK   96  A    between atoms: _218  and  _220
REMARK   97  A    between atoms: _220  and  _221
REMARK   98  A    between atoms: _220  and  _223
REMARK   99  A    between atoms: _223  and  _224
REMARK  100  A    between atoms: _229  and  _230
REMARK  101  A    between atoms: _232  and  _234
REMARK  102  A    between atoms: _234  and  _235
REMARK  103  A    between atoms: _234  and  _237
REMARK  104  A    between atoms: _237  and  _238
REMARK  105  A    between atoms: _238  and  _239
REMARK  106  A    between atoms: _242  and  _244
REMARK  107  A    between atoms: _244  and  _245
REMARK  108  A    between atoms: _244  and  _247
REMARK  109  A    between atoms: _247  and  _248
REMARK  110  A    between atoms: _254  and  _256
REMARK  111  A    between atoms: _256  and  _257
REMARK  112  A    between atoms: _256  and  _259
REMARK  113  A    between atoms: _259  and  _260
REMARK  114  A    between atoms: _265  and  _266
REMARK  115  A    between atoms: _268  and  _270
REMARK  116  A    between atoms: _270  and  _271
REMARK  117  A    between atoms: _270  and  _273
REMARK  118  A    between atoms: _273  and  _274
REMARK  119  A    between atoms: _277  and  _279
REMARK  120  A    between atoms: _279  and  _280
REMARK  121  A    between atoms: _279  and  _282
REMARK  122  A    between atoms: _285  and  _287
REMARK  123  A    between atoms: _287  and  _288
REMARK  124  A    between atoms: _290  and  _292
REMARK  125  A    between atoms: _292  and  _293
REMARK  126  A    between atoms: _292  and  _295
REMARK  127  A    between atoms: _295  and  _296
REMARK  128  A    between atoms: _296  and  _297
REMARK  129  A    between atoms: _300  and  _302
REMARK  130  A    between atoms: _302  and  _303
REMARK  131  A    between atoms: _302  and  _305
REMARK  132  A    between atoms: _308  and  _310
REMARK  133  A    between atoms: _310  and  _311
REMARK  134  A    between atoms: _310  and  _313
REMARK  135  A    between atoms: _313  and  _314
REMARK  136  A    between atoms: _319  and  _320
REMARK  137  A    between atoms: _322  and  _324
REMARK  138  A    between atoms: _324  and  _325
REMARK  139  A    between atoms: _324  and  _327
REMARK  140  A    between atoms: _327  and  _328
REMARK  141  A    between atoms: _331  and  _333
REMARK  142  A    between atoms: _333  and  _334
REMARK  143  A    between atoms: _336  and  _338
REMARK  144  A    between atoms: _338  and  _339
REMARK  145  A    between atoms: _341  and  _343
REMARK  146  A    between atoms: _343  and  _344
REMARK  147  A    between atoms: _343  and  _346
REMARK  148  A    between atoms: _346  and  _347
REMARK  149  A    between atoms: _347  and  _348
REMARK  150  A    between atoms: _351  and  _353
REMARK  151  A    between atoms: _353  and  _354
REMARK  152  A    between atoms: _353  and  _356
REMARK  153  A    between atoms: _356  and  _357
REMARK  154  A    between atoms: _360  and  _362
REMARK  155  A    between atoms: _362  and  _363
REMARK  156  A    between atoms: _362  and  _365
REMARK  157  A    between atoms: _365  and  _366
REMARK  158  A    between atoms: _369  and  _371
REMARK  159  A    between atoms: _371  and  _372
REMARK  160  A    between atoms: _371  and  _374
REMARK  161  A    between atoms: _374  and  _375
REMARK  162  A    between atoms: _380  and  _382
REMARK  163  A    between atoms: _382  and  _383
REMARK  164  A    between atoms: _382  and  _385
REMARK  165  A    between atoms: _385  and  _386
REMARK  166  A    between atoms: _386  and  _387
REMARK  167  A    between atoms: _387  and  _388
REMARK  168  A    between atoms: _388  and  _389
REMARK  169  A    between atoms: _394  and  _395
REMARK  170  A    between atoms: _400  and  _402
REMARK  171  A    between atoms: _402  and  _403
REMARK  172  A    between atoms: _402  and  _405
REMARK  173  A    between atoms: _405  and  _406
REMARK  174  A    between atoms: _406  and  _407
REMARK  175  A    between atoms: _410  and  _412
REMARK  176  A    between atoms: _412  and  _413
REMARK  177  A    between atoms: _412  and  _415
REMARK  178  A    between atoms: _415  and  _416
REMARK  179  A    between atoms: _421  and  _423
REMARK  180  A    between atoms: _423  and  _424
REMARK  181  A    between atoms: _423  and  _426
REMARK  182  A    between atoms: _426  and  _427
REMARK  183  A    between atoms: _430  and  _432
REMARK  184  A    between atoms: _432  and  _433
REMARK  185  A    between atoms: _432  and  _435
REMARK  186  A    between atoms: _435  and  _436
REMARK  187  A    between atoms: _439  and  _441
REMARK  188  A    between atoms: _441  and  _442
REMARK  189  A    between atoms: _441  and  _444
REMARK  190  A    between atoms: _444  and  _445
REMARK  191  A    between atoms: _448  and  _450
REMARK  192  A    between atoms: _450  and  _451
REMARK  193  A    between atoms: _450  and  _453
REMARK  194  A    between atoms: _453  and  _454
REMARK  195  A    between atoms: _454  and  _455
REMARK  196  A    between atoms: _455  and  _456
REMARK  197  A    between atoms: _465  and  _467
REMARK  198  A    between atoms: _467  and  _468
REMARK  199  A    between atoms: _467  and  _470
REMARK  200  A    between atoms: _470  and  _471
REMARK  201  A    between atoms: _474  and  _476
REMARK  202  A    between atoms: _476  and  _477
REMARK  203  A    between atoms: _476  and  _479
REMARK  204  A    between atoms: _479  and  _480
REMARK  205  A    between atoms: _483  and  _485
REMARK  206  A    between atoms: _485  and  _486
REMARK  207  A    between atoms: _485  and  _488
REMARK  208  A    between atoms: _488  and  _489
REMARK  209  A    between atoms: _492  and  _494
REMARK  210  A    between atoms: _494  and  _495
REMARK  211  A    between atoms: _494  and  _497
REMARK  212  A    between atoms: _497  and  _498
REMARK  213  A    between atoms: _504  and  _506
REMARK  214  A    between atoms: _506  and  _507
REMARK  215  A    between atoms: _509  and  _511
REMARK  216  A    between atoms: _511  and  _512
REMARK  217  A    between atoms: _511  and  _514
REMARK  218  A    between atoms: _514  and  _515
REMARK  219  A    between atoms: _518  and  _520
REMARK  220  A    between atoms: _520  and  _521
REMARK  221  A    between atoms: _520  and  _523
REMARK  222  A    between atoms: _523  and  _524
REMARK  223  A    between atoms: _530  and  _532
REMARK  224  A    between atoms: _532  and  _533
REMARK  225  A    between atoms: _532  and  _535
REMARK  226  A    between atoms: _535  and  _536
REMARK  227  A    between atoms: _536  and  _537
REMARK  228  A    between atoms: _537  and  _538
REMARK  229  A    between atoms: _538  and  _539
REMARK  230  A    between atoms: _543  and  _545
REMARK  231  A    between atoms: _545  and  _546
REMARK  232  A    between atoms: _545  and  _548
REMARK  233  A    between atoms: _548  and  _549
REMARK  234  A    between atoms: _549  and  _550
REMARK                            x       y       z     vdW  Elec       q    Type
REMARK                         _______ _______ _______ _____ _____    ______ ____
ROOT
ATOM      1  O   HOH     1       6.290  16.491  64.795  0.00  0.00    +0.000 OA
ENDROOT
TORSDOF 0
