REMARK  Name = ../refined-set-2016/1hxw/1hxw_pocket.pdb
REMARK  227 active torsions:
REMARK  status: ('A' for Active; 'I' for Inactive)
REMARK    1  A    between atoms: _1  and  _3
REMARK    2  A    between atoms: _3  and  _4
REMARK    3  A    between atoms: _3  and  _6
REMARK    4  A    between atoms: _6  and  _7
REMARK    5  A    between atoms: _7  and  _8
REMARK    6  A    between atoms: _8  and  _9
REMARK    7  A    between atoms: _18  and  _20
REMARK    8  A    between atoms: _20  and  _21
REMARK    9  A    between atoms: _20  and  _23
REMARK   10  A    between atoms: _23  and  _24
REMARK   11  A    between atoms: _27  and  _29
REMARK   12  A    between atoms: _29  and  _30
REMARK   13  A    between atoms: _29  and  _32
REMARK   14  A    between atoms: _32  and  _33
REMARK   15  A    between atoms: _36  and  _38
REMARK   16  A    between atoms: _38  and  _39
REMARK   17  A    between atoms: _38  and  _41
REMARK   18  A    between atoms: _41  and  _42
REMARK   19  A    between atoms: _45  and  _47
REMARK   20  A    between atoms: _47  and  _48
REMARK   21  A    between atoms: _47  and  _50
REMARK   22  A    between atoms: _50  and  _51
REMARK   23  A    between atoms: _54  and  _56
REMARK   24  A    between atoms: _56  and  _57
REMARK   25  A    between atoms: _59  and  _61
REMARK   26  A    between atoms: _61  and  _62
REMARK   27  A    between atoms: _65  and  _67
REMARK   28  A    between atoms: _67  and  _68
REMARK   29  A    between atoms: _67  and  _70
REMARK   30  A    between atoms: _70  and  _71
REMARK   31  A    between atoms: _74  and  _76
REMARK   32  A    between atoms: _76  and  _77
REMARK   33  A    between atoms: _76  and  _79
REMARK   34  A    between atoms: _79  and  _80
REMARK   35  A    between atoms: _83  and  _85
REMARK   36  A    between atoms: _85  and  _86
REMARK   37  A    between atoms: _85  and  _88
REMARK   38  A    between atoms: _88  and  _89
REMARK   39  A    between atoms: _92  and  _94
REMARK   40  A    between atoms: _94  and  _95
REMARK   41  A    between atoms: _94  and  _97
REMARK   42  A    between atoms: _100  and  _102
REMARK   43  A    between atoms: _102  and  _103
REMARK   44  A    between atoms: _102  and  _105
REMARK   45  A    between atoms: _105  and  _106
REMARK   46  A    between atoms: _106  and  _107
REMARK   47  A    between atoms: _107  and  _108
REMARK   48  A    between atoms: _108  and  _109
REMARK   49  A    between atoms: _113  and  _115
REMARK   50  A    between atoms: _115  and  _116
REMARK   51  A    between atoms: _115  and  _118
REMARK   52  A    between atoms: _118  and  _119
REMARK   53  A    between atoms: _119  and  _120
REMARK   54  A    between atoms: _122  and  _124
REMARK   55  A    between atoms: _124  and  _125
REMARK   56  A    between atoms: _124  and  _127
REMARK   57  A    between atoms: _127  and  _128
REMARK   58  A    between atoms: _131  and  _133
REMARK   59  A    between atoms: _133  and  _134
REMARK   60  A    between atoms: _136  and  _138
REMARK   61  A    between atoms: _138  and  _139
REMARK   62  A    between atoms: _141  and  _143
REMARK   63  A    between atoms: _143  and  _144
REMARK   64  A    between atoms: _143  and  _146
REMARK   65  A    between atoms: _146  and  _147
REMARK   66  A    between atoms: _150  and  _152
REMARK   67  A    between atoms: _152  and  _153
REMARK   68  A    between atoms: _155  and  _157
REMARK   69  A    between atoms: _157  and  _158
REMARK   70  A    between atoms: _160  and  _162
REMARK   71  A    between atoms: _162  and  _163
REMARK   72  A    between atoms: _162  and  _165
REMARK   73  A    between atoms: _165  and  _166
REMARK   74  A    between atoms: _172  and  _174
REMARK   75  A    between atoms: _174  and  _175
REMARK   76  A    between atoms: _174  and  _177
REMARK   77  A    between atoms: _177  and  _178
REMARK   78  A    between atoms: _181  and  _183
REMARK   79  A    between atoms: _183  and  _184
REMARK   80  A    between atoms: _183  and  _186
REMARK   81  A    between atoms: _186  and  _187
REMARK   82  A    between atoms: _191  and  _192
REMARK   83  A    between atoms: _197  and  _199
REMARK   84  A    between atoms: _199  and  _200
REMARK   85  A    between atoms: _199  and  _202
REMARK   86  A    between atoms: _202  and  _203
REMARK   87  A    between atoms: _207  and  _208
REMARK   88  A    between atoms: _213  and  _215
REMARK   89  A    between atoms: _215  and  _216
REMARK   90  A    between atoms: _215  and  _218
REMARK   91  A    between atoms: _221  and  _223
REMARK   92  A    between atoms: _223  and  _224
REMARK   93  A    between atoms: _223  and  _226
REMARK   94  A    between atoms: _226  and  _227
REMARK   95  A    between atoms: _232  and  _234
REMARK   96  A    between atoms: _234  and  _235
REMARK   97  A    between atoms: _234  and  _237
REMARK   98  A    between atoms: _237  and  _238
REMARK   99  A    between atoms: _241  and  _243
REMARK  100  A    between atoms: _243  and  _244
REMARK  101  A    between atoms: _246  and  _248
REMARK  102  A    between atoms: _248  and  _249
REMARK  103  A    between atoms: _248  and  _251
REMARK  104  A    between atoms: _251  and  _252
REMARK  105  A    between atoms: _252  and  _253
REMARK  106  A    between atoms: _253  and  _254
REMARK  107  A    between atoms: _263  and  _265
REMARK  108  A    between atoms: _265  and  _266
REMARK  109  A    between atoms: _265  and  _268
REMARK  110  A    between atoms: _268  and  _269
REMARK  111  A    between atoms: _269  and  _270
REMARK  112  A    between atoms: _270  and  _271
REMARK  113  A    between atoms: _280  and  _282
REMARK  114  A    between atoms: _282  and  _283
REMARK  115  A    between atoms: _282  and  _285
REMARK  116  A    between atoms: _285  and  _286
REMARK  117  A    between atoms: _289  and  _291
REMARK  118  A    between atoms: _291  and  _292
REMARK  119  A    between atoms: _291  and  _294
REMARK  120  A    between atoms: _294  and  _295
REMARK  121  A    between atoms: _298  and  _300
REMARK  122  A    between atoms: _300  and  _301
REMARK  123  A    between atoms: _300  and  _303
REMARK  124  A    between atoms: _303  and  _304
REMARK  125  A    between atoms: _307  and  _309
REMARK  126  A    between atoms: _309  and  _310
REMARK  127  A    between atoms: _309  and  _312
REMARK  128  A    between atoms: _312  and  _313
REMARK  129  A    between atoms: _316  and  _318
REMARK  130  A    between atoms: _318  and  _319
REMARK  131  A    between atoms: _318  and  _321
REMARK  132  A    between atoms: _321  and  _322
REMARK  133  A    between atoms: _325  and  _327
REMARK  134  A    between atoms: _327  and  _328
REMARK  135  A    between atoms: _330  and  _332
REMARK  136  A    between atoms: _332  and  _333
REMARK  137  A    between atoms: _336  and  _338
REMARK  138  A    between atoms: _338  and  _339
REMARK  139  A    between atoms: _338  and  _341
REMARK  140  A    between atoms: _341  and  _342
REMARK  141  A    between atoms: _345  and  _347
REMARK  142  A    between atoms: _347  and  _348
REMARK  143  A    between atoms: _347  and  _350
REMARK  144  A    between atoms: _350  and  _351
REMARK  145  A    between atoms: _354  and  _356
REMARK  146  A    between atoms: _356  and  _357
REMARK  147  A    between atoms: _356  and  _359
REMARK  148  A    between atoms: _359  and  _360
REMARK  149  A    between atoms: _363  and  _365
REMARK  150  A    between atoms: _365  and  _366
REMARK  151  A    between atoms: _365  and  _368
REMARK  152  A    between atoms: _371  and  _373
REMARK  153  A    between atoms: _373  and  _374
REMARK  154  A    between atoms: _373  and  _376
REMARK  155  A    between atoms: _376  and  _377
REMARK  156  A    between atoms: _380  and  _382
REMARK  157  A    between atoms: _382  and  _383
REMARK  158  A    between atoms: _382  and  _385
REMARK  159  A    between atoms: _385  and  _386
REMARK  160  A    between atoms: _386  and  _387
REMARK  161  A    between atoms: _387  and  _388
REMARK  162  A    between atoms: _388  and  _389
REMARK  163  A    between atoms: _393  and  _395
REMARK  164  A    between atoms: _395  and  _396
REMARK  165  A    between atoms: _395  and  _398
REMARK  166  A    between atoms: _398  and  _399
REMARK  167  A    between atoms: _399  and  _400
REMARK  168  A    between atoms: _402  and  _404
REMARK  169  A    between atoms: _404  and  _405
REMARK  170  A    between atoms: _404  and  _407
REMARK  171  A    between atoms: _407  and  _408
REMARK  172  A    between atoms: _411  and  _413
REMARK  173  A    between atoms: _413  and  _414
REMARK  174  A    between atoms: _416  and  _418
REMARK  175  A    between atoms: _418  and  _419
REMARK  176  A    between atoms: _421  and  _423
REMARK  177  A    between atoms: _423  and  _424
REMARK  178  A    between atoms: _423  and  _426
REMARK  179  A    between atoms: _426  and  _427
REMARK  180  A    between atoms: _430  and  _432
REMARK  181  A    between atoms: _432  and  _433
REMARK  182  A    between atoms: _435  and  _437
REMARK  183  A    between atoms: _437  and  _438
REMARK  184  A    between atoms: _440  and  _442
REMARK  185  A    between atoms: _442  and  _443
REMARK  186  A    between atoms: _442  and  _445
REMARK  187  A    between atoms: _445  and  _446
REMARK  188  A    between atoms: _449  and  _451
REMARK  189  A    between atoms: _451  and  _452
REMARK  190  A    between atoms: _451  and  _454
REMARK  191  A    between atoms: _457  and  _459
REMARK  192  A    between atoms: _459  and  _460
REMARK  193  A    between atoms: _459  and  _462
REMARK  194  A    between atoms: _462  and  _463
REMARK  195  A    between atoms: _467  and  _468
REMARK  196  A    between atoms: _473  and  _475
REMARK  197  A    between atoms: _475  and  _476
REMARK  198  A    between atoms: _475  and  _478
REMARK  199  A    between atoms: _478  and  _479
REMARK  200  A    between atoms: _483  and  _484
REMARK  201  A    between atoms: _489  and  _491
REMARK  202  A    between atoms: _491  and  _492
REMARK  203  A    between atoms: _491  and  _494
REMARK  204  A    between atoms: _497  and  _499
REMARK  205  A    between atoms: _499  and  _500
REMARK  206  A    between atoms: _499  and  _502
REMARK  207  A    between atoms: _502  and  _503
REMARK  208  A    between atoms: _508  and  _510
REMARK  209  A    between atoms: _510  and  _511
REMARK  210  A    between atoms: _510  and  _513
REMARK  211  A    between atoms: _513  and  _514
REMARK  212  A    between atoms: _517  and  _519
REMARK  213  A    between atoms: _519  and  _520
REMARK  214  A    between atoms: _519  and  _522
REMARK  215  A    between atoms: _522  and  _523
REMARK  216  A    between atoms: _526  and  _528
REMARK  217  A    between atoms: _528  and  _529
REMARK  218  A    between atoms: _531  and  _533
REMARK  219  A    between atoms: _533  and  _534
REMARK  220  A    between atoms: _533  and  _536
REMARK  221  A    between atoms: _536  and  _537
REMARK  222  A    between atoms: _537  and  _538
REMARK  223  A    between atoms: _538  and  _539
REMARK  224  A    between atoms: _548  and  _550
REMARK  225  A    between atoms: _550  and  _551
REMARK  226  A    between atoms: _550  and  _553
REMARK  227  A    between atoms: _553  and  _554
REMARK                            x       y       z     vdW  Elec       q    Type
REMARK                         _______ _______ _______ _____ _____    ______ ____
ROOT
ATOM      1  NE  ARG A   1      22.815  20.429   8.288  0.00  0.00    -0.265 N 
ATOM      2  CZ  ARG A   1      21.927  20.143   9.268  0.00  0.00    +0.342 C 
ATOM      3  NH2 ARG A   1      21.979  20.814  10.472  0.00  0.00    -0.292 N 
ATOM      4 HH21 ARG A   1      21.294  20.590  11.222  0.00  0.00    +0.255 HD
ATOM      5 HH22 ARG A   1      22.703  21.544  10.630  0.00  0.00    +0.255 HD
ATOM      6  NH1 ARG A   1      20.873  19.330   9.064  0.00  0.00    -0.292 N 
ATOM      7 HH11 ARG A   1      20.211  19.133   9.841  0.00  0.00    +0.255 HD
ATOM      8 HH12 ARG A   1      20.721  18.900   8.129  0.00  0.00    +0.255 HD
ATOM      9  HE  ARG A   1      22.702  19.991   7.352  0.00  0.00    +0.259 HD
ENDROOT
BRANCH   1  10
ATOM     10  CD  ARG A   1      23.948  21.359   8.528  0.00  0.00    +0.174 C 
BRANCH  10  11
ATOM     11  CG  ARG A   1      24.307  22.051   7.237  0.00  0.00    +0.045 C 
BRANCH  11  12
ATOM     12  CB  ARG A   1      25.039  23.350   7.512  0.00  0.00    +0.029 C 
BRANCH  12  13
ATOM     13  CA  ARG A   1      25.590  24.126   6.309  0.00  0.00    +0.133 C 
BRANCH  13  14
ATOM     14  N   ARG A   1      26.834  23.541   5.844  0.00  0.00    -0.239 NA
ATOM     15  H   ARG A   1      27.196  22.693   6.325  0.00  0.00    +0.142 HD
ENDBRANCH  13  14
BRANCH  13  16
ATOM     16  C   ARG A   1      25.877  25.558   6.729  0.00  0.00    +0.224 C 
ATOM     17  O   ARG A   1      26.858  25.719   7.478  0.00  0.00    -0.287 OA
ENDBRANCH  13  16
ENDBRANCH  12  13
ENDBRANCH  11  12
ENDBRANCH  10  11
ENDBRANCH   1  10
TORSDOF 6
REMARK  Name = ../refined-set-2016/1hxw/1hxw_pocket.pdb
REMARK  227 active torsions:
REMARK  status: ('A' for Active; 'I' for Inactive)
REMARK    1  A    between atoms: _1  and  _3
REMARK    2  A    between atoms: _3  and  _4
REMARK    3  A    between atoms: _3  and  _6
REMARK    4  A    between atoms: _6  and  _7
REMARK    5  A    between atoms: _7  and  _8
REMARK    6  A    between atoms: _8  and  _9
REMARK    7  A    between atoms: _18  and  _20
REMARK    8  A    between atoms: _20  and  _21
REMARK    9  A    between atoms: _20  and  _23
REMARK   10  A    between atoms: _23  and  _24
REMARK   11  A    between atoms: _27  and  _29
REMARK   12  A    between atoms: _29  and  _30
REMARK   13  A    between atoms: _29  and  _32
REMARK   14  A    between atoms: _32  and  _33
REMARK   15  A    between atoms: _36  and  _38
REMARK   16  A    between atoms: _38  and  _39
REMARK   17  A    between atoms: _38  and  _41
REMARK   18  A    between atoms: _41  and  _42
REMARK   19  A    between atoms: _45  and  _47
REMARK   20  A    between atoms: _47  and  _48
REMARK   21  A    between atoms: _47  and  _50
REMARK   22  A    between atoms: _50  and  _51
REMARK   23  A    between atoms: _54  and  _56
REMARK   24  A    between atoms: _56  and  _57
REMARK   25  A    between atoms: _59  and  _61
REMARK   26  A    between atoms: _61  and  _62
REMARK   27  A    between atoms: _65  and  _67
REMARK   28  A    between atoms: _67  and  _68
REMARK   29  A    between atoms: _67  and  _70
REMARK   30  A    between atoms: _70  and  _71
REMARK   31  A    between atoms: _74  and  _76
REMARK   32  A    between atoms: _76  and  _77
REMARK   33  A    between atoms: _76  and  _79
REMARK   34  A    between atoms: _79  and  _80
REMARK   35  A    between atoms: _83  and  _85
REMARK   36  A    between atoms: _85  and  _86
REMARK   37  A    between atoms: _85  and  _88
REMARK   38  A    between atoms: _88  and  _89
REMARK   39  A    between atoms: _92  and  _94
REMARK   40  A    between atoms: _94  and  _95
REMARK   41  A    between atoms: _94  and  _97
REMARK   42  A    between atoms: _100  and  _102
REMARK   43  A    between atoms: _102  and  _103
REMARK   44  A    between atoms: _102  and  _105
REMARK   45  A    between atoms: _105  and  _106
REMARK   46  A    between atoms: _106  and  _107
REMARK   47  A    between atoms: _107  and  _108
REMARK   48  A    between atoms: _108  and  _109
REMARK   49  A    between atoms: _113  and  _115
REMARK   50  A    between atoms: _115  and  _116
REMARK   51  A    between atoms: _115  and  _118
REMARK   52  A    between atoms: _118  and  _119
REMARK   53  A    between atoms: _119  and  _120
REMARK   54  A    between atoms: _122  and  _124
REMARK   55  A    between atoms: _124  and  _125
REMARK   56  A    between atoms: _124  and  _127
REMARK   57  A    between atoms: _127  and  _128
REMARK   58  A    between atoms: _131  and  _133
REMARK   59  A    between atoms: _133  and  _134
REMARK   60  A    between atoms: _136  and  _138
REMARK   61  A    between atoms: _138  and  _139
REMARK   62  A    between atoms: _141  and  _143
REMARK   63  A    between atoms: _143  and  _144
REMARK   64  A    between atoms: _143  and  _146
REMARK   65  A    between atoms: _146  and  _147
REMARK   66  A    between atoms: _150  and  _152
REMARK   67  A    between atoms: _152  and  _153
REMARK   68  A    between atoms: _155  and  _157
REMARK   69  A    between atoms: _157  and  _158
REMARK   70  A    between atoms: _160  and  _162
REMARK   71  A    between atoms: _162  and  _163
REMARK   72  A    between atoms: _162  and  _165
REMARK   73  A    between atoms: _165  and  _166
REMARK   74  A    between atoms: _172  and  _174
REMARK   75  A    between atoms: _174  and  _175
REMARK   76  A    between atoms: _174  and  _177
REMARK   77  A    between atoms: _177  and  _178
REMARK   78  A    between atoms: _181  and  _183
REMARK   79  A    between atoms: _183  and  _184
REMARK   80  A    between atoms: _183  and  _186
REMARK   81  A    between atoms: _186  and  _187
REMARK   82  A    between atoms: _191  and  _192
REMARK   83  A    between atoms: _197  and  _199
REMARK   84  A    between atoms: _199  and  _200
REMARK   85  A    between atoms: _199  and  _202
REMARK   86  A    between atoms: _202  and  _203
REMARK   87  A    between atoms: _207  and  _208
REMARK   88  A    between atoms: _213  and  _215
REMARK   89  A    between atoms: _215  and  _216
REMARK   90  A    between atoms: _215  and  _218
REMARK   91  A    between atoms: _221  and  _223
REMARK   92  A    between atoms: _223  and  _224
REMARK   93  A    between atoms: _223  and  _226
REMARK   94  A    between atoms: _226  and  _227
REMARK   95  A    between atoms: _232  and  _234
REMARK   96  A    between atoms: _234  and  _235
REMARK   97  A    between atoms: _234  and  _237
REMARK   98  A    between atoms: _237  and  _238
REMARK   99  A    between atoms: _241  and  _243
REMARK  100  A    between atoms: _243  and  _244
REMARK  101  A    between atoms: _246  and  _248
REMARK  102  A    between atoms: _248  and  _249
REMARK  103  A    between atoms: _248  and  _251
REMARK  104  A    between atoms: _251  and  _252
REMARK  105  A    between atoms: _252  and  _253
REMARK  106  A    between atoms: _253  and  _254
REMARK  107  A    between atoms: _263  and  _265
REMARK  108  A    between atoms: _265  and  _266
REMARK  109  A    between atoms: _265  and  _268
REMARK  110  A    between atoms: _268  and  _269
REMARK  111  A    between atoms: _269  and  _270
REMARK  112  A    between atoms: _270  and  _271
REMARK  113  A    between atoms: _280  and  _282
REMARK  114  A    between atoms: _282  and  _283
REMARK  115  A    between atoms: _282  and  _285
REMARK  116  A    between atoms: _285  and  _286
REMARK  117  A    between atoms: _289  and  _291
REMARK  118  A    between atoms: _291  and  _292
REMARK  119  A    between atoms: _291  and  _294
REMARK  120  A    between atoms: _294  and  _295
REMARK  121  A    between atoms: _298  and  _300
REMARK  122  A    between atoms: _300  and  _301
REMARK  123  A    between atoms: _300  and  _303
REMARK  124  A    between atoms: _303  and  _304
REMARK  125  A    between atoms: _307  and  _309
REMARK  126  A    between atoms: _309  and  _310
REMARK  127  A    between atoms: _309  and  _312
REMARK  128  A    between atoms: _312  and  _313
REMARK  129  A    between atoms: _316  and  _318
REMARK  130  A    between atoms: _318  and  _319
REMARK  131  A    between atoms: _318  and  _321
REMARK  132  A    between atoms: _321  and  _322
REMARK  133  A    between atoms: _325  and  _327
REMARK  134  A    between atoms: _327  and  _328
REMARK  135  A    between atoms: _330  and  _332
REMARK  136  A    between atoms: _332  and  _333
REMARK  137  A    between atoms: _336  and  _338
REMARK  138  A    between atoms: _338  and  _339
REMARK  139  A    between atoms: _338  and  _341
REMARK  140  A    between atoms: _341  and  _342
REMARK  141  A    between atoms: _345  and  _347
REMARK  142  A    between atoms: _347  and  _348
REMARK  143  A    between atoms: _347  and  _350
REMARK  144  A    between atoms: _350  and  _351
REMARK  145  A    between atoms: _354  and  _356
REMARK  146  A    between atoms: _356  and  _357
REMARK  147  A    between atoms: _356  and  _359
REMARK  148  A    between atoms: _359  and  _360
REMARK  149  A    between atoms: _363  and  _365
REMARK  150  A    between atoms: _365  and  _366
REMARK  151  A    between atoms: _365  and  _368
REMARK  152  A    between atoms: _371  and  _373
REMARK  153  A    between atoms: _373  and  _374
REMARK  154  A    between atoms: _373  and  _376
REMARK  155  A    between atoms: _376  and  _377
REMARK  156  A    between atoms: _380  and  _382
REMARK  157  A    between atoms: _382  and  _383
REMARK  158  A    between atoms: _382  and  _385
REMARK  159  A    between atoms: _385  and  _386
REMARK  160  A    between atoms: _386  and  _387
REMARK  161  A    between atoms: _387  and  _388
REMARK  162  A    between atoms: _388  and  _389
REMARK  163  A    between atoms: _393  and  _395
REMARK  164  A    between atoms: _395  and  _396
REMARK  165  A    between atoms: _395  and  _398
REMARK  166  A    between atoms: _398  and  _399
REMARK  167  A    between atoms: _399  and  _400
REMARK  168  A    between atoms: _402  and  _404
REMARK  169  A    between atoms: _404  and  _405
REMARK  170  A    between atoms: _404  and  _407
REMARK  171  A    between atoms: _407  and  _408
REMARK  172  A    between atoms: _411  and  _413
REMARK  173  A    between atoms: _413  and  _414
REMARK  174  A    between atoms: _416  and  _418
REMARK  175  A    between atoms: _418  and  _419
REMARK  176  A    between atoms: _421  and  _423
REMARK  177  A    between atoms: _423  and  _424
REMARK  178  A    between atoms: _423  and  _426
REMARK  179  A    between atoms: _426  and  _427
REMARK  180  A    between atoms: _430  and  _432
REMARK  181  A    between atoms: _432  and  _433
REMARK  182  A    between atoms: _435  and  _437
REMARK  183  A    between atoms: _437  and  _438
REMARK  184  A    between atoms: _440  and  _442
REMARK  185  A    between atoms: _442  and  _443
REMARK  186  A    between atoms: _442  and  _445
REMARK  187  A    between atoms: _445  and  _446
REMARK  188  A    between atoms: _449  and  _451
REMARK  189  A    between atoms: _451  and  _452
REMARK  190  A    between atoms: _451  and  _454
REMARK  191  A    between atoms: _457  and  _459
REMARK  192  A    between atoms: _459  and  _460
REMARK  193  A    between atoms: _459  and  _462
REMARK  194  A    between atoms: _462  and  _463
REMARK  195  A    between atoms: _467  and  _468
REMARK  196  A    between atoms: _473  and  _475
REMARK  197  A    between atoms: _475  and  _476
REMARK  198  A    between atoms: _475  and  _478
REMARK  199  A    between atoms: _478  and  _479
REMARK  200  A    between atoms: _483  and  _484
REMARK  201  A    between atoms: _489  and  _491
REMARK  202  A    between atoms: _491  and  _492
REMARK  203  A    between atoms: _491  and  _494
REMARK  204  A    between atoms: _497  and  _499
REMARK  205  A    between atoms: _499  and  _500
REMARK  206  A    between atoms: _499  and  _502
REMARK  207  A    between atoms: _502  and  _503
REMARK  208  A    between atoms: _508  and  _510
REMARK  209  A    between atoms: _510  and  _511
REMARK  210  A    between atoms: _510  and  _513
REMARK  211  A    between atoms: _513  and  _514
REMARK  212  A    between atoms: _517  and  _519
REMARK  213  A    between atoms: _519  and  _520
REMARK  214  A    between atoms: _519  and  _522
REMARK  215  A    between atoms: _522  and  _523
REMARK  216  A    between atoms: _526  and  _528
REMARK  217  A    between atoms: _528  and  _529
REMARK  218  A    between atoms: _531  and  _533
REMARK  219  A    between atoms: _533  and  _534
REMARK  220  A    between atoms: _533  and  _536
REMARK  221  A    between atoms: _536  and  _537
REMARK  222  A    between atoms: _537  and  _538
REMARK  223  A    between atoms: _538  and  _539
REMARK  224  A    between atoms: _548  and  _550
REMARK  225  A    between atoms: _550  and  _551
REMARK  226  A    between atoms: _550  and  _553
REMARK  227  A    between atoms: _553  and  _554
REMARK                            x       y       z     vdW  Elec       q    Type
REMARK                         _______ _______ _______ _____ _____    ______ ____
ROOT
ATOM      1  C   GLY A   5      12.751  27.876   3.047  0.00  0.00    +0.243 C 
ATOM      2  N   ALA A   6      12.918  28.570   4.189  0.00  0.00    -0.297 N 
ATOM      3  H   ALA A   6      13.798  29.103   4.343  0.00  0.00    +0.150 HD
ATOM      4  O   GLY A   5      11.752  27.202   2.920  0.00  0.00    -0.273 OA
ENDROOT
BRANCH   2   5
ATOM      5  CA  ALA A   6      11.861  28.582   5.228  0.00  0.00    +0.149 C 
ATOM      6  CB  ALA A   6      12.525  28.391   6.574  0.00  0.00    +0.031 C 
BRANCH   5   7
ATOM      7  C   ALA A   6      11.164  29.968   5.185  0.00  0.00    +0.241 C 
ATOM      8  O   ALA A   6      11.829  31.029   5.217  0.00  0.00    -0.273 OA
ATOM      9  N   ASP A   7       9.871  30.052   5.029  0.00  0.00    -0.297 N 
ATOM     10  H   ASP A   7       9.300  29.215   4.793  0.00  0.00    +0.150 HD
BRANCH   9  11
ATOM     11  CA  ASP A   7       9.263  31.351   5.196  0.00  0.00    +0.160 C 
BRANCH  11  12
ATOM     12  C   ASP A   7       9.444  31.931   6.591  0.00  0.00    +0.241 C 
ATOM     13  N   ASP A   8       9.468  31.037   7.575  0.00  0.00    -0.297 N 
ATOM     14  H   ASP A   8       9.542  30.034   7.311  0.00  0.00    +0.150 HD
ATOM     15  O   ASP A   7       9.559  33.125   6.764  0.00  0.00    -0.273 OA
BRANCH  13  16
ATOM     16  CA  ASP A   8       9.399  31.352   8.981  0.00  0.00    +0.160 C 
BRANCH  16  17
ATOM     17  C   ASP A   8      10.669  31.004   9.697  0.00  0.00    +0.241 C 
ATOM     18  N   THR A   9      10.841  31.624  10.862  0.00  0.00    -0.295 N 
ATOM     19  H   THR A   9      10.121  32.309  11.168  0.00  0.00    +0.150 HD
ATOM     20  O   ASP A   8      11.503  30.246   9.183  0.00  0.00    -0.273 OA
BRANCH  18  21
ATOM     21  CA  THR A   9      11.987  31.391  11.729  0.00  0.00    +0.176 C 
BRANCH  21  22
ATOM     22  C   THR A   9      11.405  30.484  12.811  0.00  0.00    +0.243 C 
ATOM     23  O   THR A   9      10.375  30.780  13.445  0.00  0.00    -0.273 OA
ATOM     24  N   VAL A  10      12.104  29.350  12.980  0.00  0.00    -0.298 N 
ATOM     25  H   VAL A  10      13.006  29.234  12.476  0.00  0.00    +0.150 HD
BRANCH  24  26
ATOM     26  CA  VAL A  10      11.637  28.280  13.846  0.00  0.00    +0.137 C 
BRANCH  26  27
ATOM     27  CB  VAL A  10      11.083  26.998  13.103  0.00  0.00    +0.026 C 
ATOM     28  CG2 VAL A  10      10.309  26.129  14.101  0.00  0.00    +0.002 C 
ATOM     29  CG1 VAL A  10      10.146  27.337  12.000  0.00  0.00    +0.002 C 
ENDBRANCH  26  27
BRANCH  26  30
ATOM     30  C   VAL A  10      12.840  27.837  14.624  0.00  0.00    +0.227 C 
ATOM     31  O   VAL A  10      13.864  27.386  14.119  0.00  0.00    -0.286 OA
ENDBRANCH  26  30
ENDBRANCH  24  26
ENDBRANCH  21  22
BRANCH  21  32
ATOM     32  CB  THR A   9      12.455  32.730  12.268  0.00  0.00    +0.137 C 
ATOM     33  CG2 THR A   9      13.346  32.545  13.429  0.00  0.00    +0.034 C 
BRANCH  32  34
ATOM     34  OG1 THR A   9      13.120  33.407  11.206  0.00  0.00    -0.382 OA
ATOM     35  HG1 THR A   9      12.490  33.536  10.453  0.00  0.00    +0.210 HD
ENDBRANCH  32  34
ENDBRANCH  21  32
ENDBRANCH  18  21
ENDBRANCH  16  17
BRANCH  16  36
ATOM     36  CB  ASP A   8       8.218  30.587   9.589  0.00  0.00    +0.143 C 
BRANCH  36  37
ATOM     37  CG  ASP A   8       6.828  30.895   9.046  0.00  0.00    +0.367 C 
ATOM     38  OD2 ASP A   8       6.356  32.046   8.948  0.00  0.00    -0.246 OA
ATOM     39  OD1 ASP A   8       6.199  29.920   8.689  0.00  0.00    -0.246 OA
ENDBRANCH  36  37
ENDBRANCH  16  36
ENDBRANCH  13  16
ENDBRANCH  11  12
BRANCH  11  40
ATOM     40  CB  ASP A   7       7.801  31.299   5.016  0.00  0.00    +0.143 C 
BRANCH  40  41
ATOM     41  CG  ASP A   7       7.306  30.997   3.633  0.00  0.00    +0.367 C 
ATOM     42  OD2 ASP A   7       6.095  31.027   3.509  0.00  0.00    -0.246 OA
ATOM     43  OD1 ASP A   7       8.082  30.737   2.730  0.00  0.00    -0.246 OA
ENDBRANCH  40  41
ENDBRANCH  11  40
ENDBRANCH   9  11
ENDBRANCH   5   7
ENDBRANCH   2   5
BRANCH   1  44
ATOM     44  CA  GLY A   5      13.709  27.881   1.909  0.00  0.00    +0.176 C 
BRANCH  44  46
ATOM     45  C   THR A   4      14.973  29.898   1.841  0.00  0.00    +0.243 C 
ATOM     46  N   GLY A   5      14.864  28.659   2.220  0.00  0.00    -0.295 N 
ATOM     47  H   GLY A   5      15.637  28.225   2.763  0.00  0.00    +0.150 HD
ATOM     48  O   THR A   4      14.067  30.451   1.237  0.00  0.00    -0.273 OA
BRANCH  45  49
ATOM     49  CA  THR A   4      16.244  30.615   2.230  0.00  0.00    +0.176 C 
BRANCH  49  52
ATOM     50  C   ASP A   3      16.606  29.856   4.522  0.00  0.00    +0.241 C 
ATOM     51  O   ASP A   3      15.500  30.326   4.814  0.00  0.00    -0.273 OA
ATOM     52  N   THR A   4      17.012  29.925   3.262  0.00  0.00    -0.295 N 
ATOM     53  H   THR A   4      17.910  29.471   2.999  0.00  0.00    +0.150 HD
BRANCH  50  54
ATOM     54  CA  ASP A   3      17.532  29.120   5.530  0.00  0.00    +0.160 C 
BRANCH  54  56
ATOM     55  C   LEU A   2      19.680  29.834   6.391  0.00  0.00    +0.241 C 
ATOM     56  N   ASP A   3      18.373  29.903   6.445  0.00  0.00    -0.297 N 
ATOM     57  H   ASP A   3      17.923  30.523   7.148  0.00  0.00    +0.150 HD
ATOM     58  O   LEU A   2      20.277  29.251   5.469  0.00  0.00    -0.273 OA
BRANCH  55  59
ATOM     59  CA  LEU A   2      20.420  30.540   7.505  0.00  0.00    +0.149 C 
BRANCH  59  62
ATOM     60  C   LEU A   1      20.315  28.849   9.251  0.00  0.00    +0.238 C 
ATOM     61  O   LEU A   1      19.163  29.192   9.440  0.00  0.00    -0.274 OA
ATOM     62  N   LEU A   2      21.036  29.534   8.358  0.00  0.00    -0.297 N 
ATOM     63  H   LEU A   2      22.055  29.345   8.271  0.00  0.00    +0.150 HD
BRANCH  60  64
ATOM     64  CA  LEU A   1      20.815  27.673  10.058  0.00  0.00    +0.145 C 
BRANCH  64  65
ATOM     65  N   LEU A   1      20.534  27.822  11.440  0.00  0.00    -0.238 NA
ATOM     66  H   LEU A   1      19.653  27.432  11.832  0.00  0.00    +0.142 HD
ENDBRANCH  64  65
BRANCH  64  67
ATOM     67  CB  LEU A   1      20.173  26.363   9.714  0.00  0.00    +0.026 C 
BRANCH  67  68
ATOM     68  CG  LEU A   1      20.244  25.799   8.339  0.00  0.00    +0.002 C 
ATOM     69  CD2 LEU A   1      19.496  24.475   8.274  0.00  0.00    +0.000 C 
ATOM     70  CD1 LEU A   1      21.649  25.411   8.062  0.00  0.00    +0.000 C 
ENDBRANCH  67  68
ENDBRANCH  64  67
ENDBRANCH  60  64
ENDBRANCH  59  62
BRANCH  59  71
ATOM     71  CB  LEU A   2      21.459  31.496   6.899  0.00  0.00    +0.029 C 
BRANCH  71  72
ATOM     72  CG  LEU A   2      22.331  32.262   7.914  0.00  0.00    +0.002 C 
ATOM     73  CD2 LEU A   2      21.470  32.998   8.926  0.00  0.00    +0.000 C 
ATOM     74  CD1 LEU A   2      23.282  33.163   7.123  0.00  0.00    +0.000 C 
ENDBRANCH  71  72
ENDBRANCH  59  71
ENDBRANCH  55  59
ENDBRANCH  54  56
BRANCH  54  75
ATOM     75  CB  ASP A   3      16.761  28.213   6.442  0.00  0.00    +0.143 C 
BRANCH  75  76
ATOM     76  CG  ASP A   3      16.007  27.086   5.756  0.00  0.00    +0.367 C 
ATOM     77  OD2 ASP A   3      15.437  26.310   6.491  0.00  0.00    -0.246 OA
ATOM     78  OD1 ASP A   3      15.938  26.981   4.533  0.00  0.00    -0.246 OA
ENDBRANCH  75  76
ENDBRANCH  54  75
ENDBRANCH  50  54
ENDBRANCH  49  52
BRANCH  49  79
ATOM     79  CB  THR A   4      17.128  30.826   1.000  0.00  0.00    +0.137 C 
ATOM     80  CG2 THR A   4      18.309  31.751   1.397  0.00  0.00    +0.034 C 
BRANCH  79  81
ATOM     81  OG1 THR A   4      17.566  29.586   0.500  0.00  0.00    -0.382 OA
ATOM     82  HG1 THR A   4      16.781  29.038   0.246  0.00  0.00    +0.210 HD
ENDBRANCH  79  81
ENDBRANCH  49  79
ENDBRANCH  45  49
ENDBRANCH  44  46
ENDBRANCH   1  44
TORSDOF 35
REMARK  Name = ../refined-set-2016/1hxw/1hxw_pocket.pdb
REMARK  227 active torsions:
REMARK  status: ('A' for Active; 'I' for Inactive)
REMARK    1  A    between atoms: _1  and  _3
REMARK    2  A    between atoms: _3  and  _4
REMARK    3  A    between atoms: _3  and  _6
REMARK    4  A    between atoms: _6  and  _7
REMARK    5  A    between atoms: _7  and  _8
REMARK    6  A    between atoms: _8  and  _9
REMARK    7  A    between atoms: _18  and  _20
REMARK    8  A    between atoms: _20  and  _21
REMARK    9  A    between atoms: _20  and  _23
REMARK   10  A    between atoms: _23  and  _24
REMARK   11  A    between atoms: _27  and  _29
REMARK   12  A    between atoms: _29  and  _30
REMARK   13  A    between atoms: _29  and  _32
REMARK   14  A    between atoms: _32  and  _33
REMARK   15  A    between atoms: _36  and  _38
REMARK   16  A    between atoms: _38  and  _39
REMARK   17  A    between atoms: _38  and  _41
REMARK   18  A    between atoms: _41  and  _42
REMARK   19  A    between atoms: _45  and  _47
REMARK   20  A    between atoms: _47  and  _48
REMARK   21  A    between atoms: _47  and  _50
REMARK   22  A    between atoms: _50  and  _51
REMARK   23  A    between atoms: _54  and  _56
REMARK   24  A    between atoms: _56  and  _57
REMARK   25  A    between atoms: _59  and  _61
REMARK   26  A    between atoms: _61  and  _62
REMARK   27  A    between atoms: _65  and  _67
REMARK   28  A    between atoms: _67  and  _68
REMARK   29  A    between atoms: _67  and  _70
REMARK   30  A    between atoms: _70  and  _71
REMARK   31  A    between atoms: _74  and  _76
REMARK   32  A    between atoms: _76  and  _77
REMARK   33  A    between atoms: _76  and  _79
REMARK   34  A    between atoms: _79  and  _80
REMARK   35  A    between atoms: _83  and  _85
REMARK   36  A    between atoms: _85  and  _86
REMARK   37  A    between atoms: _85  and  _88
REMARK   38  A    between atoms: _88  and  _89
REMARK   39  A    between atoms: _92  and  _94
REMARK   40  A    between atoms: _94  and  _95
REMARK   41  A    between atoms: _94  and  _97
REMARK   42  A    between atoms: _100  and  _102
REMARK   43  A    between atoms: _102  and  _103
REMARK   44  A    between atoms: _102  and  _105
REMARK   45  A    between atoms: _105  and  _106
REMARK   46  A    between atoms: _106  and  _107
REMARK   47  A    between atoms: _107  and  _108
REMARK   48  A    between atoms: _108  and  _109
REMARK   49  A    between atoms: _113  and  _115
REMARK   50  A    between atoms: _115  and  _116
REMARK   51  A    between atoms: _115  and  _118
REMARK   52  A    between atoms: _118  and  _119
REMARK   53  A    between atoms: _119  and  _120
REMARK   54  A    between atoms: _122  and  _124
REMARK   55  A    between atoms: _124  and  _125
REMARK   56  A    between atoms: _124  and  _127
REMARK   57  A    between atoms: _127  and  _128
REMARK   58  A    between atoms: _131  and  _133
REMARK   59  A    between atoms: _133  and  _134
REMARK   60  A    between atoms: _136  and  _138
REMARK   61  A    between atoms: _138  and  _139
REMARK   62  A    between atoms: _141  and  _143
REMARK   63  A    between atoms: _143  and  _144
REMARK   64  A    between atoms: _143  and  _146
REMARK   65  A    between atoms: _146  and  _147
REMARK   66  A    between atoms: _150  and  _152
REMARK   67  A    between atoms: _152  and  _153
REMARK   68  A    between atoms: _155  and  _157
REMARK   69  A    between atoms: _157  and  _158
REMARK   70  A    between atoms: _160  and  _162
REMARK   71  A    between atoms: _162  and  _163
REMARK   72  A    between atoms: _162  and  _165
REMARK   73  A    between atoms: _165  and  _166
REMARK   74  A    between atoms: _172  and  _174
REMARK   75  A    between atoms: _174  and  _175
REMARK   76  A    between atoms: _174  and  _177
REMARK   77  A    between atoms: _177  and  _178
REMARK   78  A    between atoms: _181  and  _183
REMARK   79  A    between atoms: _183  and  _184
REMARK   80  A    between atoms: _183  and  _186
REMARK   81  A    between atoms: _186  and  _187
REMARK   82  A    between atoms: _191  and  _192
REMARK   83  A    between atoms: _197  and  _199
REMARK   84  A    between atoms: _199  and  _200
REMARK   85  A    between atoms: _199  and  _202
REMARK   86  A    between atoms: _202  and  _203
REMARK   87  A    between atoms: _207  and  _208
REMARK   88  A    between atoms: _213  and  _215
REMARK   89  A    between atoms: _215  and  _216
REMARK   90  A    between atoms: _215  and  _218
REMARK   91  A    between atoms: _221  and  _223
REMARK   92  A    between atoms: _223  and  _224
REMARK   93  A    between atoms: _223  and  _226
REMARK   94  A    between atoms: _226  and  _227
REMARK   95  A    between atoms: _232  and  _234
REMARK   96  A    between atoms: _234  and  _235
REMARK   97  A    between atoms: _234  and  _237
REMARK   98  A    between atoms: _237  and  _238
REMARK   99  A    between atoms: _241  and  _243
REMARK  100  A    between atoms: _243  and  _244
REMARK  101  A    between atoms: _246  and  _248
REMARK  102  A    between atoms: _248  and  _249
REMARK  103  A    between atoms: _248  and  _251
REMARK  104  A    between atoms: _251  and  _252
REMARK  105  A    between atoms: _252  and  _253
REMARK  106  A    between atoms: _253  and  _254
REMARK  107  A    between atoms: _263  and  _265
REMARK  108  A    between atoms: _265  and  _266
REMARK  109  A    between atoms: _265  and  _268
REMARK  110  A    between atoms: _268  and  _269
REMARK  111  A    between atoms: _269  and  _270
REMARK  112  A    between atoms: _270  and  _271
REMARK  113  A    between atoms: _280  and  _282
REMARK  114  A    between atoms: _282  and  _283
REMARK  115  A    between atoms: _282  and  _285
REMARK  116  A    between atoms: _285  and  _286
REMARK  117  A    between atoms: _289  and  _291
REMARK  118  A    between atoms: _291  and  _292
REMARK  119  A    between atoms: _291  and  _294
REMARK  120  A    between atoms: _294  and  _295
REMARK  121  A    between atoms: _298  and  _300
REMARK  122  A    between atoms: _300  and  _301
REMARK  123  A    between atoms: _300  and  _303
REMARK  124  A    between atoms: _303  and  _304
REMARK  125  A    between atoms: _307  and  _309
REMARK  126  A    between atoms: _309  and  _310
REMARK  127  A    between atoms: _309  and  _312
REMARK  128  A    between atoms: _312  and  _313
REMARK  129  A    between atoms: _316  and  _318
REMARK  130  A    between atoms: _318  and  _319
REMARK  131  A    between atoms: _318  and  _321
REMARK  132  A    between atoms: _321  and  _322
REMARK  133  A    between atoms: _325  and  _327
REMARK  134  A    between atoms: _327  and  _328
REMARK  135  A    between atoms: _330  and  _332
REMARK  136  A    between atoms: _332  and  _333
REMARK  137  A    between atoms: _336  and  _338
REMARK  138  A    between atoms: _338  and  _339
REMARK  139  A    between atoms: _338  and  _341
REMARK  140  A    between atoms: _341  and  _342
REMARK  141  A    between atoms: _345  and  _347
REMARK  142  A    between atoms: _347  and  _348
REMARK  143  A    between atoms: _347  and  _350
REMARK  144  A    between atoms: _350  and  _351
REMARK  145  A    between atoms: _354  and  _356
REMARK  146  A    between atoms: _356  and  _357
REMARK  147  A    between atoms: _356  and  _359
REMARK  148  A    between atoms: _359  and  _360
REMARK  149  A    between atoms: _363  and  _365
REMARK  150  A    between atoms: _365  and  _366
REMARK  151  A    between atoms: _365  and  _368
REMARK  152  A    between atoms: _371  and  _373
REMARK  153  A    between atoms: _373  and  _374
REMARK  154  A    between atoms: _373  and  _376
REMARK  155  A    between atoms: _376  and  _377
REMARK  156  A    between atoms: _380  and  _382
REMARK  157  A    between atoms: _382  and  _383
REMARK  158  A    between atoms: _382  and  _385
REMARK  159  A    between atoms: _385  and  _386
REMARK  160  A    between atoms: _386  and  _387
REMARK  161  A    between atoms: _387  and  _388
REMARK  162  A    between atoms: _388  and  _389
REMARK  163  A    between atoms: _393  and  _395
REMARK  164  A    between atoms: _395  and  _396
REMARK  165  A    between atoms: _395  and  _398
REMARK  166  A    between atoms: _398  and  _399
REMARK  167  A    between atoms: _399  and  _400
REMARK  168  A    between atoms: _402  and  _404
REMARK  169  A    between atoms: _404  and  _405
REMARK  170  A    between atoms: _404  and  _407
REMARK  171  A    between atoms: _407  and  _408
REMARK  172  A    between atoms: _411  and  _413
REMARK  173  A    between atoms: _413  and  _414
REMARK  174  A    between atoms: _416  and  _418
REMARK  175  A    between atoms: _418  and  _419
REMARK  176  A    between atoms: _421  and  _423
REMARK  177  A    between atoms: _423  and  _424
REMARK  178  A    between atoms: _423  and  _426
REMARK  179  A    between atoms: _426  and  _427
REMARK  180  A    between atoms: _430  and  _432
REMARK  181  A    between atoms: _432  and  _433
REMARK  182  A    between atoms: _435  and  _437
REMARK  183  A    between atoms: _437  and  _438
REMARK  184  A    between atoms: _440  and  _442
REMARK  185  A    between atoms: _442  and  _443
REMARK  186  A    between atoms: _442  and  _445
REMARK  187  A    between atoms: _445  and  _446
REMARK  188  A    between atoms: _449  and  _451
REMARK  189  A    between atoms: _451  and  _452
REMARK  190  A    between atoms: _451  and  _454
REMARK  191  A    between atoms: _457  and  _459
REMARK  192  A    between atoms: _459  and  _460
REMARK  193  A    between atoms: _459  and  _462
REMARK  194  A    between atoms: _462  and  _463
REMARK  195  A    between atoms: _467  and  _468
REMARK  196  A    between atoms: _473  and  _475
REMARK  197  A    between atoms: _475  and  _476
REMARK  198  A    between atoms: _475  and  _478
REMARK  199  A    between atoms: _478  and  _479
REMARK  200  A    between atoms: _483  and  _484
REMARK  201  A    between atoms: _489  and  _491
REMARK  202  A    between atoms: _491  and  _492
REMARK  203  A    between atoms: _491  and  _494
REMARK  204  A    between atoms: _497  and  _499
REMARK  205  A    between atoms: _499  and  _500
REMARK  206  A    between atoms: _499  and  _502
REMARK  207  A    between atoms: _502  and  _503
REMARK  208  A    between atoms: _508  and  _510
REMARK  209  A    between atoms: _510  and  _511
REMARK  210  A    between atoms: _510  and  _513
REMARK  211  A    between atoms: _513  and  _514
REMARK  212  A    between atoms: _517  and  _519
REMARK  213  A    between atoms: _519  and  _520
REMARK  214  A    between atoms: _519  and  _522
REMARK  215  A    between atoms: _522  and  _523
REMARK  216  A    between atoms: _526  and  _528
REMARK  217  A    between atoms: _528  and  _529
REMARK  218  A    between atoms: _531  and  _533
REMARK  219  A    between atoms: _533  and  _534
REMARK  220  A    between atoms: _533  and  _536
REMARK  221  A    between atoms: _536  and  _537
REMARK  222  A    between atoms: _537  and  _538
REMARK  223  A    between atoms: _538  and  _539
REMARK  224  A    between atoms: _548  and  _550
REMARK  225  A    between atoms: _550  and  _551
REMARK  226  A    between atoms: _550  and  _553
REMARK  227  A    between atoms: _553  and  _554
REMARK                            x       y       z     vdW  Elec       q    Type
REMARK                         _______ _______ _______ _____ _____    ______ ____
ROOT
ATOM      1  C   GLY A   5       7.297  19.595   5.057  0.00  0.00    +0.243 C 
ATOM      2  O   GLY A   5       6.305  18.882   5.092  0.00  0.00    -0.273 OA
ATOM      3  N   ILE A   6       8.507  19.135   4.784  0.00  0.00    -0.297 N 
ATOM      4  H   ILE A   6       9.299  19.806   4.727  0.00  0.00    +0.150 HD
ENDROOT
BRANCH   3   5
ATOM      5  CA  ILE A   6       8.764  17.731   4.562  0.00  0.00    +0.149 C 
BRANCH   5   6
ATOM      6  C   ILE A   6       8.553  16.992   5.874  0.00  0.00    +0.241 C 
ATOM      7  O   ILE A   6       8.986  17.358   6.980  0.00  0.00    -0.273 OA
ATOM      8  N   GLY A   7       7.749  15.951   5.738  0.00  0.00    -0.295 N 
ATOM      9  H   GLY A   7       7.292  15.744   4.827  0.00  0.00    +0.150 HD
BRANCH   8  10
ATOM     10  CA  GLY A   7       7.520  15.097   6.906  0.00  0.00    +0.176 C 
BRANCH  10  11
ATOM     11  C   GLY A   7       6.208  15.478   7.563  0.00  0.00    +0.243 C 
ATOM     12  O   GLY A   7       5.742  14.703   8.406  0.00  0.00    -0.273 OA
ATOM     13  N   GLY A   8       5.524  16.559   7.203  0.00  0.00    -0.295 N 
ATOM     14  H   GLY A   8       5.875  17.161   6.431  0.00  0.00    +0.150 HD
BRANCH  13  15
ATOM     15  CA  GLY A   8       4.285  16.903   7.886  0.00  0.00    +0.176 C 
BRANCH  15  16
ATOM     16  C   GLY A   8       4.392  18.177   8.716  0.00  0.00    +0.243 C 
ATOM     17  N   PHE A   9       3.351  18.388   9.506  0.00  0.00    -0.297 N 
ATOM     18  H   PHE A   9       2.640  17.635   9.600  0.00  0.00    +0.150 HD
ATOM     19  O   GLY A   8       5.376  18.919   8.619  0.00  0.00    -0.273 OA
BRANCH  17  20
ATOM     20  CA  PHE A   9       3.151  19.633  10.256  0.00  0.00    +0.153 C 
BRANCH  20  21
ATOM     21  C   PHE A   9       3.501  19.496  11.724  0.00  0.00    +0.241 C 
ATOM     22  N   ILE A  10       3.939  20.570  12.395  0.00  0.00    -0.298 N 
ATOM     23  H   ILE A  10       4.072  21.456  11.867  0.00  0.00    +0.150 HD
ATOM     24  O   PHE A   9       3.424  18.355  12.226  0.00  0.00    -0.273 OA
BRANCH  22  25
ATOM     25  CA  ILE A  10       4.239  20.571  13.817  0.00  0.00    +0.137 C 
BRANCH  25  26
ATOM     26  C   ILE A  10       3.582  21.778  14.455  0.00  0.00    +0.227 C 
ATOM     27  O   ILE A  10       3.366  22.755  13.755  0.00  0.00    -0.286 OA
ENDBRANCH  25  26
BRANCH  25  28
ATOM     28  CB  ILE A  10       5.793  20.615  14.172  0.00  0.00    +0.026 C 
ATOM     29  CG2 ILE A  10       6.389  19.264  13.743  0.00  0.00    +0.002 C 
BRANCH  28  30
ATOM     30  CG1 ILE A  10       6.532  21.792  13.568  0.00  0.00    +0.002 C 
ATOM     31  CD1 ILE A  10       7.933  21.976  14.225  0.00  0.00    +0.000 C 
ENDBRANCH  28  30
ENDBRANCH  25  28
ENDBRANCH  22  25
ENDBRANCH  20  21
BRANCH  20  32
ATOM     32  CB  PHE A   9       1.663  20.106  10.106  0.00  0.00    +0.055 C 
BRANCH  32  33
ATOM     33  CG  PHE A   9       1.415  20.726   8.763  0.00  0.00    -0.020 A 
ATOM     34  CD2 PHE A   9       1.111  22.085   8.708  0.00  0.00    -0.004 A 
ATOM     35  CE2 PHE A   9       0.932  22.673   7.456  0.00  0.00    -0.000 A 
ATOM     36  CZ  PHE A   9       1.051  21.907   6.283  0.00  0.00    -0.000 A 
ATOM     37  CE1 PHE A   9       1.363  20.548   6.373  0.00  0.00    -0.000 A 
ATOM     38  CD1 PHE A   9       1.543  19.956   7.609  0.00  0.00    -0.004 A 
ENDBRANCH  32  33
ENDBRANCH  20  32
ENDBRANCH  17  20
ENDBRANCH  15  16
ENDBRANCH  13  15
ENDBRANCH  10  11
ENDBRANCH   8  10
ENDBRANCH   5   6
BRANCH   5  39
ATOM     39  CB  ILE A   6      10.176  17.520   4.041  0.00  0.00    +0.027 C 
ATOM     40  CG2 ILE A   6      10.751  16.091   4.261  0.00  0.00    +0.002 C 
BRANCH  39  41
ATOM     41  CG1 ILE A   6      10.037  17.850   2.554  0.00  0.00    +0.002 C 
ATOM     42  CD1 ILE A   6      11.318  17.885   1.815  0.00  0.00    +0.000 C 
ENDBRANCH  39  41
ENDBRANCH   5  39
ENDBRANCH   3   5
BRANCH   1  43
ATOM     43  CA  GLY A   5       7.143  21.049   5.399  0.00  0.00    +0.176 C 
BRANCH  43  46
ATOM     44  C   GLY A   4       5.629  22.281   6.835  0.00  0.00    +0.243 C 
ATOM     45  O   GLY A   4       6.052  23.376   6.510  0.00  0.00    -0.273 OA
ATOM     46  N   GLY A   5       6.102  21.117   6.411  0.00  0.00    -0.295 N 
ATOM     47  H   GLY A   5       5.721  20.236   6.810  0.00  0.00    +0.150 HD
BRANCH  44  48
ATOM     48  CA  GLY A   4       4.527  22.121   7.818  0.00  0.00    +0.176 C 
BRANCH  48  51
ATOM     49  C   ILE A   3       4.032  23.555   9.669  0.00  0.00    +0.241 C 
ATOM     50  O   ILE A   3       4.167  22.626  10.461  0.00  0.00    -0.273 OA
ATOM     51  N   GLY A   4       4.216  23.404   8.373  0.00  0.00    -0.295 N 
ATOM     52  H   GLY A   4       4.134  24.228   7.744  0.00  0.00    +0.150 HD
BRANCH  49  53
ATOM     53  CA  ILE A   3       3.747  24.929  10.216  0.00  0.00    +0.149 C 
BRANCH  53  55
ATOM     54  C   MET A   2       1.673  25.238  11.561  0.00  0.00    +0.241 C 
ATOM     55  N   ILE A   3       2.886  24.696  11.363  0.00  0.00    -0.297 N 
ATOM     56  H   ILE A   3       3.241  24.051  12.097  0.00  0.00    +0.150 HD
ATOM     57  O   MET A   2       1.175  26.026  10.768  0.00  0.00    -0.273 OA
BRANCH  54  58
ATOM     58  CA  MET A   2       0.882  24.844  12.810  0.00  0.00    +0.149 C 
BRANCH  58  61
ATOM     59  C   LYS A   1       0.798  26.506  14.677  0.00  0.00    +0.238 C 
ATOM     60  O   LYS A   1       1.423  25.844  15.509  0.00  0.00    -0.274 OA
ATOM     61  N   MET A   2       0.494  26.094  13.430  0.00  0.00    -0.297 N 
ATOM     62  H   MET A   2      -0.079  26.742  12.853  0.00  0.00    +0.150 HD
BRANCH  59  63
ATOM     63  CA  LYS A   1       0.379  27.918  15.024  0.00  0.00    +0.145 C 
BRANCH  63  64
ATOM     64  N   LYS A   1       0.251  27.948  16.433  0.00  0.00    -0.238 NA
ATOM     65  H   LYS A   1       0.870  27.326  16.992  0.00  0.00    +0.142 HD
ENDBRANCH  63  64
BRANCH  63  66
ATOM     66  CB  LYS A   1       1.462  28.865  14.586  0.00  0.00    +0.026 C 
BRANCH  66  67
ATOM     67  CG  LYS A   1       1.356  29.031  13.082  0.00  0.00    -0.000 C 
BRANCH  67  68
ATOM     68  CD  LYS A   1       2.325  30.084  12.581  0.00  0.00    -0.024 C 
BRANCH  68  69
ATOM     69  CE  LYS A   1       2.121  30.325  11.076  0.00  0.00    -0.086 C 
BRANCH  69  70
ATOM     70  NZ  LYS A   1       1.446  31.590  10.734  0.00  0.00    +0.380 N 
ATOM     71  HZ1 LYS A   1       0.502  31.607  11.170  0.00  0.00    -0.089 HD
ATOM     72  HZ2 LYS A   1       2.008  32.389  11.091  0.00  0.00    -0.089 HD
ATOM     73  HZ3 LYS A   1       1.354  31.664   9.701  0.00  0.00    -0.089 HD
ENDBRANCH  69  70
ENDBRANCH  68  69
ENDBRANCH  67  68
ENDBRANCH  66  67
ENDBRANCH  63  66
ENDBRANCH  59  63
ENDBRANCH  58  61
BRANCH  58  74
ATOM     74  CB  MET A   2      -0.301  24.090  12.314  0.00  0.00    +0.041 C 
BRANCH  74  75
ATOM     75  CG  MET A   2      -1.265  23.719  13.387  0.00  0.00    +0.060 C 
BRANCH  75  76
ATOM     76  SD  MET A   2      -0.653  22.396  14.409  0.00  0.00    -0.139 S 
ATOM     77  CE  MET A   2      -1.538  21.198  13.489  0.00  0.00    +0.069 C 
ENDBRANCH  75  76
ENDBRANCH  74  75
ENDBRANCH  58  74
ENDBRANCH  54  58
ENDBRANCH  53  55
BRANCH  53  78
ATOM     78  CB  ILE A   3       5.143  25.527  10.538  0.00  0.00    +0.027 C 
ATOM     79  CG2 ILE A   3       4.992  26.958  10.768  0.00  0.00    +0.002 C 
BRANCH  78  80
ATOM     80  CG1 ILE A   3       5.720  24.960  11.754  0.00  0.00    +0.002 C 
ATOM     81  CD1 ILE A   3       7.105  25.484  11.947  0.00  0.00    +0.000 C 
ENDBRANCH  78  80
ENDBRANCH  53  78
ENDBRANCH  49  53
ENDBRANCH  48  51
ENDBRANCH  44  48
ENDBRANCH  43  46
ENDBRANCH   1  43
TORSDOF 36
REMARK  Name = ../refined-set-2016/1hxw/1hxw_pocket.pdb
REMARK  227 active torsions:
REMARK  status: ('A' for Active; 'I' for Inactive)
REMARK    1  A    between atoms: _1  and  _3
REMARK    2  A    between atoms: _3  and  _4
REMARK    3  A    between atoms: _3  and  _6
REMARK    4  A    between atoms: _6  and  _7
REMARK    5  A    between atoms: _7  and  _8
REMARK    6  A    between atoms: _8  and  _9
REMARK    7  A    between atoms: _18  and  _20
REMARK    8  A    between atoms: _20  and  _21
REMARK    9  A    between atoms: _20  and  _23
REMARK   10  A    between atoms: _23  and  _24
REMARK   11  A    between atoms: _27  and  _29
REMARK   12  A    between atoms: _29  and  _30
REMARK   13  A    between atoms: _29  and  _32
REMARK   14  A    between atoms: _32  and  _33
REMARK   15  A    between atoms: _36  and  _38
REMARK   16  A    between atoms: _38  and  _39
REMARK   17  A    between atoms: _38  and  _41
REMARK   18  A    between atoms: _41  and  _42
REMARK   19  A    between atoms: _45  and  _47
REMARK   20  A    between atoms: _47  and  _48
REMARK   21  A    between atoms: _47  and  _50
REMARK   22  A    between atoms: _50  and  _51
REMARK   23  A    between atoms: _54  and  _56
REMARK   24  A    between atoms: _56  and  _57
REMARK   25  A    between atoms: _59  and  _61
REMARK   26  A    between atoms: _61  and  _62
REMARK   27  A    between atoms: _65  and  _67
REMARK   28  A    between atoms: _67  and  _68
REMARK   29  A    between atoms: _67  and  _70
REMARK   30  A    between atoms: _70  and  _71
REMARK   31  A    between atoms: _74  and  _76
REMARK   32  A    between atoms: _76  and  _77
REMARK   33  A    between atoms: _76  and  _79
REMARK   34  A    between atoms: _79  and  _80
REMARK   35  A    between atoms: _83  and  _85
REMARK   36  A    between atoms: _85  and  _86
REMARK   37  A    between atoms: _85  and  _88
REMARK   38  A    between atoms: _88  and  _89
REMARK   39  A    between atoms: _92  and  _94
REMARK   40  A    between atoms: _94  and  _95
REMARK   41  A    between atoms: _94  and  _97
REMARK   42  A    between atoms: _100  and  _102
REMARK   43  A    between atoms: _102  and  _103
REMARK   44  A    between atoms: _102  and  _105
REMARK   45  A    between atoms: _105  and  _106
REMARK   46  A    between atoms: _106  and  _107
REMARK   47  A    between atoms: _107  and  _108
REMARK   48  A    between atoms: _108  and  _109
REMARK   49  A    between atoms: _113  and  _115
REMARK   50  A    between atoms: _115  and  _116
REMARK   51  A    between atoms: _115  and  _118
REMARK   52  A    between atoms: _118  and  _119
REMARK   53  A    between atoms: _119  and  _120
REMARK   54  A    between atoms: _122  and  _124
REMARK   55  A    between atoms: _124  and  _125
REMARK   56  A    between atoms: _124  and  _127
REMARK   57  A    between atoms: _127  and  _128
REMARK   58  A    between atoms: _131  and  _133
REMARK   59  A    between atoms: _133  and  _134
REMARK   60  A    between atoms: _136  and  _138
REMARK   61  A    between atoms: _138  and  _139
REMARK   62  A    between atoms: _141  and  _143
REMARK   63  A    between atoms: _143  and  _144
REMARK   64  A    between atoms: _143  and  _146
REMARK   65  A    between atoms: _146  and  _147
REMARK   66  A    between atoms: _150  and  _152
REMARK   67  A    between atoms: _152  and  _153
REMARK   68  A    between atoms: _155  and  _157
REMARK   69  A    between atoms: _157  and  _158
REMARK   70  A    between atoms: _160  and  _162
REMARK   71  A    between atoms: _162  and  _163
REMARK   72  A    between atoms: _162  and  _165
REMARK   73  A    between atoms: _165  and  _166
REMARK   74  A    between atoms: _172  and  _174
REMARK   75  A    between atoms: _174  and  _175
REMARK   76  A    between atoms: _174  and  _177
REMARK   77  A    between atoms: _177  and  _178
REMARK   78  A    between atoms: _181  and  _183
REMARK   79  A    between atoms: _183  and  _184
REMARK   80  A    between atoms: _183  and  _186
REMARK   81  A    between atoms: _186  and  _187
REMARK   82  A    between atoms: _191  and  _192
REMARK   83  A    between atoms: _197  and  _199
REMARK   84  A    between atoms: _199  and  _200
REMARK   85  A    between atoms: _199  and  _202
REMARK   86  A    between atoms: _202  and  _203
REMARK   87  A    between atoms: _207  and  _208
REMARK   88  A    between atoms: _213  and  _215
REMARK   89  A    between atoms: _215  and  _216
REMARK   90  A    between atoms: _215  and  _218
REMARK   91  A    between atoms: _221  and  _223
REMARK   92  A    between atoms: _223  and  _224
REMARK   93  A    between atoms: _223  and  _226
REMARK   94  A    between atoms: _226  and  _227
REMARK   95  A    between atoms: _232  and  _234
REMARK   96  A    between atoms: _234  and  _235
REMARK   97  A    between atoms: _234  and  _237
REMARK   98  A    between atoms: _237  and  _238
REMARK   99  A    between atoms: _241  and  _243
REMARK  100  A    between atoms: _243  and  _244
REMARK  101  A    between atoms: _246  and  _248
REMARK  102  A    between atoms: _248  and  _249
REMARK  103  A    between atoms: _248  and  _251
REMARK  104  A    between atoms: _251  and  _252
REMARK  105  A    between atoms: _252  and  _253
REMARK  106  A    between atoms: _253  and  _254
REMARK  107  A    between atoms: _263  and  _265
REMARK  108  A    between atoms: _265  and  _266
REMARK  109  A    between atoms: _265  and  _268
REMARK  110  A    between atoms: _268  and  _269
REMARK  111  A    between atoms: _269  and  _270
REMARK  112  A    between atoms: _270  and  _271
REMARK  113  A    between atoms: _280  and  _282
REMARK  114  A    between atoms: _282  and  _283
REMARK  115  A    between atoms: _282  and  _285
REMARK  116  A    between atoms: _285  and  _286
REMARK  117  A    between atoms: _289  and  _291
REMARK  118  A    between atoms: _291  and  _292
REMARK  119  A    between atoms: _291  and  _294
REMARK  120  A    between atoms: _294  and  _295
REMARK  121  A    between atoms: _298  and  _300
REMARK  122  A    between atoms: _300  and  _301
REMARK  123  A    between atoms: _300  and  _303
REMARK  124  A    between atoms: _303  and  _304
REMARK  125  A    between atoms: _307  and  _309
REMARK  126  A    between atoms: _309  and  _310
REMARK  127  A    between atoms: _309  and  _312
REMARK  128  A    between atoms: _312  and  _313
REMARK  129  A    between atoms: _316  and  _318
REMARK  130  A    between atoms: _318  and  _319
REMARK  131  A    between atoms: _318  and  _321
REMARK  132  A    between atoms: _321  and  _322
REMARK  133  A    between atoms: _325  and  _327
REMARK  134  A    between atoms: _327  and  _328
REMARK  135  A    between atoms: _330  and  _332
REMARK  136  A    between atoms: _332  and  _333
REMARK  137  A    between atoms: _336  and  _338
REMARK  138  A    between atoms: _338  and  _339
REMARK  139  A    between atoms: _338  and  _341
REMARK  140  A    between atoms: _341  and  _342
REMARK  141  A    between atoms: _345  and  _347
REMARK  142  A    between atoms: _347  and  _348
REMARK  143  A    between atoms: _347  and  _350
REMARK  144  A    between atoms: _350  and  _351
REMARK  145  A    between atoms: _354  and  _356
REMARK  146  A    between atoms: _356  and  _357
REMARK  147  A    between atoms: _356  and  _359
REMARK  148  A    between atoms: _359  and  _360
REMARK  149  A    between atoms: _363  and  _365
REMARK  150  A    between atoms: _365  and  _366
REMARK  151  A    between atoms: _365  and  _368
REMARK  152  A    between atoms: _371  and  _373
REMARK  153  A    between atoms: _373  and  _374
REMARK  154  A    between atoms: _373  and  _376
REMARK  155  A    between atoms: _376  and  _377
REMARK  156  A    between atoms: _380  and  _382
REMARK  157  A    between atoms: _382  and  _383
REMARK  158  A    between atoms: _382  and  _385
REMARK  159  A    between atoms: _385  and  _386
REMARK  160  A    between atoms: _386  and  _387
REMARK  161  A    between atoms: _387  and  _388
REMARK  162  A    between atoms: _388  and  _389
REMARK  163  A    between atoms: _393  and  _395
REMARK  164  A    between atoms: _395  and  _396
REMARK  165  A    between atoms: _395  and  _398
REMARK  166  A    between atoms: _398  and  _399
REMARK  167  A    between atoms: _399  and  _400
REMARK  168  A    between atoms: _402  and  _404
REMARK  169  A    between atoms: _404  and  _405
REMARK  170  A    between atoms: _404  and  _407
REMARK  171  A    between atoms: _407  and  _408
REMARK  172  A    between atoms: _411  and  _413
REMARK  173  A    between atoms: _413  and  _414
REMARK  174  A    between atoms: _416  and  _418
REMARK  175  A    between atoms: _418  and  _419
REMARK  176  A    between atoms: _421  and  _423
REMARK  177  A    between atoms: _423  and  _424
REMARK  178  A    between atoms: _423  and  _426
REMARK  179  A    between atoms: _426  and  _427
REMARK  180  A    between atoms: _430  and  _432
REMARK  181  A    between atoms: _432  and  _433
REMARK  182  A    between atoms: _435  and  _437
REMARK  183  A    between atoms: _437  and  _438
REMARK  184  A    between atoms: _440  and  _442
REMARK  185  A    between atoms: _442  and  _443
REMARK  186  A    between atoms: _442  and  _445
REMARK  187  A    between atoms: _445  and  _446
REMARK  188  A    between atoms: _449  and  _451
REMARK  189  A    between atoms: _451  and  _452
REMARK  190  A    between atoms: _451  and  _454
REMARK  191  A    between atoms: _457  and  _459
REMARK  192  A    between atoms: _459  and  _460
REMARK  193  A    between atoms: _459  and  _462
REMARK  194  A    between atoms: _462  and  _463
REMARK  195  A    between atoms: _467  and  _468
REMARK  196  A    between atoms: _473  and  _475
REMARK  197  A    between atoms: _475  and  _476
REMARK  198  A    between atoms: _475  and  _478
REMARK  199  A    between atoms: _478  and  _479
REMARK  200  A    between atoms: _483  and  _484
REMARK  201  A    between atoms: _489  and  _491
REMARK  202  A    between atoms: _491  and  _492
REMARK  203  A    between atoms: _491  and  _494
REMARK  204  A    between atoms: _497  and  _499
REMARK  205  A    between atoms: _499  and  _500
REMARK  206  A    between atoms: _499  and  _502
REMARK  207  A    between atoms: _502  and  _503
REMARK  208  A    between atoms: _508  and  _510
REMARK  209  A    between atoms: _510  and  _511
REMARK  210  A    between atoms: _510  and  _513
REMARK  211  A    between atoms: _513  and  _514
REMARK  212  A    between atoms: _517  and  _519
REMARK  213  A    between atoms: _519  and  _520
REMARK  214  A    between atoms: _519  and  _522
REMARK  215  A    between atoms: _522  and  _523
REMARK  216  A    between atoms: _526  and  _528
REMARK  217  A    between atoms: _528  and  _529
REMARK  218  A    between atoms: _531  and  _533
REMARK  219  A    between atoms: _533  and  _534
REMARK  220  A    between atoms: _533  and  _536
REMARK  221  A    between atoms: _536  and  _537
REMARK  222  A    between atoms: _537  and  _538
REMARK  223  A    between atoms: _538  and  _539
REMARK  224  A    between atoms: _548  and  _550
REMARK  225  A    between atoms: _550  and  _551
REMARK  226  A    between atoms: _550  and  _553
REMARK  227  A    between atoms: _553  and  _554
REMARK                            x       y       z     vdW  Elec       q    Type
REMARK                         _______ _______ _______ _____ _____    ______ ____
ROOT
ATOM      1  CA  LEU A   1       8.064  30.352  16.260  0.00  0.00    +0.133 C 
ENDROOT
BRANCH   1   2
ATOM      2  N   LEU A   1       8.935  31.470  15.868  0.00  0.00    -0.239 NA
ATOM      3  H   LEU A   1       9.650  31.293  15.133  0.00  0.00    +0.142 HD
ENDBRANCH   1   2
BRANCH   1   4
ATOM      4  C   LEU A   1       8.931  29.414  17.048  0.00  0.00    +0.224 C 
ATOM      5  O   LEU A   1      10.104  29.243  16.712  0.00  0.00    -0.287 OA
ENDBRANCH   1   4
BRANCH   1   6
ATOM      6  CB  LEU A   1       7.534  29.630  15.033  0.00  0.00    +0.025 C 
BRANCH   6   7
ATOM      7  CG  LEU A   1       6.906  30.500  13.943  0.00  0.00    +0.002 C 
ATOM      8  CD2 LEU A   1       5.687  31.282  14.405  0.00  0.00    +0.000 C 
ATOM      9  CD1 LEU A   1       6.492  29.520  12.839  0.00  0.00    +0.000 C 
ENDBRANCH   6   7
ENDBRANCH   1   6
TORSDOF 4
REMARK  Name = ../refined-set-2016/1hxw/1hxw_pocket.pdb
REMARK  227 active torsions:
REMARK  status: ('A' for Active; 'I' for Inactive)
REMARK    1  A    between atoms: _1  and  _3
REMARK    2  A    between atoms: _3  and  _4
REMARK    3  A    between atoms: _3  and  _6
REMARK    4  A    between atoms: _6  and  _7
REMARK    5  A    between atoms: _7  and  _8
REMARK    6  A    between atoms: _8  and  _9
REMARK    7  A    between atoms: _18  and  _20
REMARK    8  A    between atoms: _20  and  _21
REMARK    9  A    between atoms: _20  and  _23
REMARK   10  A    between atoms: _23  and  _24
REMARK   11  A    between atoms: _27  and  _29
REMARK   12  A    between atoms: _29  and  _30
REMARK   13  A    between atoms: _29  and  _32
REMARK   14  A    between atoms: _32  and  _33
REMARK   15  A    between atoms: _36  and  _38
REMARK   16  A    between atoms: _38  and  _39
REMARK   17  A    between atoms: _38  and  _41
REMARK   18  A    between atoms: _41  and  _42
REMARK   19  A    between atoms: _45  and  _47
REMARK   20  A    between atoms: _47  and  _48
REMARK   21  A    between atoms: _47  and  _50
REMARK   22  A    between atoms: _50  and  _51
REMARK   23  A    between atoms: _54  and  _56
REMARK   24  A    between atoms: _56  and  _57
REMARK   25  A    between atoms: _59  and  _61
REMARK   26  A    between atoms: _61  and  _62
REMARK   27  A    between atoms: _65  and  _67
REMARK   28  A    between atoms: _67  and  _68
REMARK   29  A    between atoms: _67  and  _70
REMARK   30  A    between atoms: _70  and  _71
REMARK   31  A    between atoms: _74  and  _76
REMARK   32  A    between atoms: _76  and  _77
REMARK   33  A    between atoms: _76  and  _79
REMARK   34  A    between atoms: _79  and  _80
REMARK   35  A    between atoms: _83  and  _85
REMARK   36  A    between atoms: _85  and  _86
REMARK   37  A    between atoms: _85  and  _88
REMARK   38  A    between atoms: _88  and  _89
REMARK   39  A    between atoms: _92  and  _94
REMARK   40  A    between atoms: _94  and  _95
REMARK   41  A    between atoms: _94  and  _97
REMARK   42  A    between atoms: _100  and  _102
REMARK   43  A    between atoms: _102  and  _103
REMARK   44  A    between atoms: _102  and  _105
REMARK   45  A    between atoms: _105  and  _106
REMARK   46  A    between atoms: _106  and  _107
REMARK   47  A    between atoms: _107  and  _108
REMARK   48  A    between atoms: _108  and  _109
REMARK   49  A    between atoms: _113  and  _115
REMARK   50  A    between atoms: _115  and  _116
REMARK   51  A    between atoms: _115  and  _118
REMARK   52  A    between atoms: _118  and  _119
REMARK   53  A    between atoms: _119  and  _120
REMARK   54  A    between atoms: _122  and  _124
REMARK   55  A    between atoms: _124  and  _125
REMARK   56  A    between atoms: _124  and  _127
REMARK   57  A    between atoms: _127  and  _128
REMARK   58  A    between atoms: _131  and  _133
REMARK   59  A    between atoms: _133  and  _134
REMARK   60  A    between atoms: _136  and  _138
REMARK   61  A    between atoms: _138  and  _139
REMARK   62  A    between atoms: _141  and  _143
REMARK   63  A    between atoms: _143  and  _144
REMARK   64  A    between atoms: _143  and  _146
REMARK   65  A    between atoms: _146  and  _147
REMARK   66  A    between atoms: _150  and  _152
REMARK   67  A    between atoms: _152  and  _153
REMARK   68  A    between atoms: _155  and  _157
REMARK   69  A    between atoms: _157  and  _158
REMARK   70  A    between atoms: _160  and  _162
REMARK   71  A    between atoms: _162  and  _163
REMARK   72  A    between atoms: _162  and  _165
REMARK   73  A    between atoms: _165  and  _166
REMARK   74  A    between atoms: _172  and  _174
REMARK   75  A    between atoms: _174  and  _175
REMARK   76  A    between atoms: _174  and  _177
REMARK   77  A    between atoms: _177  and  _178
REMARK   78  A    between atoms: _181  and  _183
REMARK   79  A    between atoms: _183  and  _184
REMARK   80  A    between atoms: _183  and  _186
REMARK   81  A    between atoms: _186  and  _187
REMARK   82  A    between atoms: _191  and  _192
REMARK   83  A    between atoms: _197  and  _199
REMARK   84  A    between atoms: _199  and  _200
REMARK   85  A    between atoms: _199  and  _202
REMARK   86  A    between atoms: _202  and  _203
REMARK   87  A    between atoms: _207  and  _208
REMARK   88  A    between atoms: _213  and  _215
REMARK   89  A    between atoms: _215  and  _216
REMARK   90  A    between atoms: _215  and  _218
REMARK   91  A    between atoms: _221  and  _223
REMARK   92  A    between atoms: _223  and  _224
REMARK   93  A    between atoms: _223  and  _226
REMARK   94  A    between atoms: _226  and  _227
REMARK   95  A    between atoms: _232  and  _234
REMARK   96  A    between atoms: _234  and  _235
REMARK   97  A    between atoms: _234  and  _237
REMARK   98  A    between atoms: _237  and  _238
REMARK   99  A    between atoms: _241  and  _243
REMARK  100  A    between atoms: _243  and  _244
REMARK  101  A    between atoms: _246  and  _248
REMARK  102  A    between atoms: _248  and  _249
REMARK  103  A    between atoms: _248  and  _251
REMARK  104  A    between atoms: _251  and  _252
REMARK  105  A    between atoms: _252  and  _253
REMARK  106  A    between atoms: _253  and  _254
REMARK  107  A    between atoms: _263  and  _265
REMARK  108  A    between atoms: _265  and  _266
REMARK  109  A    between atoms: _265  and  _268
REMARK  110  A    between atoms: _268  and  _269
REMARK  111  A    between atoms: _269  and  _270
REMARK  112  A    between atoms: _270  and  _271
REMARK  113  A    between atoms: _280  and  _282
REMARK  114  A    between atoms: _282  and  _283
REMARK  115  A    between atoms: _282  and  _285
REMARK  116  A    between atoms: _285  and  _286
REMARK  117  A    between atoms: _289  and  _291
REMARK  118  A    between atoms: _291  and  _292
REMARK  119  A    between atoms: _291  and  _294
REMARK  120  A    between atoms: _294  and  _295
REMARK  121  A    between atoms: _298  and  _300
REMARK  122  A    between atoms: _300  and  _301
REMARK  123  A    between atoms: _300  and  _303
REMARK  124  A    between atoms: _303  and  _304
REMARK  125  A    between atoms: _307  and  _309
REMARK  126  A    between atoms: _309  and  _310
REMARK  127  A    between atoms: _309  and  _312
REMARK  128  A    between atoms: _312  and  _313
REMARK  129  A    between atoms: _316  and  _318
REMARK  130  A    between atoms: _318  and  _319
REMARK  131  A    between atoms: _318  and  _321
REMARK  132  A    between atoms: _321  and  _322
REMARK  133  A    between atoms: _325  and  _327
REMARK  134  A    between atoms: _327  and  _328
REMARK  135  A    between atoms: _330  and  _332
REMARK  136  A    between atoms: _332  and  _333
REMARK  137  A    between atoms: _336  and  _338
REMARK  138  A    between atoms: _338  and  _339
REMARK  139  A    between atoms: _338  and  _341
REMARK  140  A    between atoms: _341  and  _342
REMARK  141  A    between atoms: _345  and  _347
REMARK  142  A    between atoms: _347  and  _348
REMARK  143  A    between atoms: _347  and  _350
REMARK  144  A    between atoms: _350  and  _351
REMARK  145  A    between atoms: _354  and  _356
REMARK  146  A    between atoms: _356  and  _357
REMARK  147  A    between atoms: _356  and  _359
REMARK  148  A    between atoms: _359  and  _360
REMARK  149  A    between atoms: _363  and  _365
REMARK  150  A    between atoms: _365  and  _366
REMARK  151  A    between atoms: _365  and  _368
REMARK  152  A    between atoms: _371  and  _373
REMARK  153  A    between atoms: _373  and  _374
REMARK  154  A    between atoms: _373  and  _376
REMARK  155  A    between atoms: _376  and  _377
REMARK  156  A    between atoms: _380  and  _382
REMARK  157  A    between atoms: _382  and  _383
REMARK  158  A    between atoms: _382  and  _385
REMARK  159  A    between atoms: _385  and  _386
REMARK  160  A    between atoms: _386  and  _387
REMARK  161  A    between atoms: _387  and  _388
REMARK  162  A    between atoms: _388  and  _389
REMARK  163  A    between atoms: _393  and  _395
REMARK  164  A    between atoms: _395  and  _396
REMARK  165  A    between atoms: _395  and  _398
REMARK  166  A    between atoms: _398  and  _399
REMARK  167  A    between atoms: _399  and  _400
REMARK  168  A    between atoms: _402  and  _404
REMARK  169  A    between atoms: _404  and  _405
REMARK  170  A    between atoms: _404  and  _407
REMARK  171  A    between atoms: _407  and  _408
REMARK  172  A    between atoms: _411  and  _413
REMARK  173  A    between atoms: _413  and  _414
REMARK  174  A    between atoms: _416  and  _418
REMARK  175  A    between atoms: _418  and  _419
REMARK  176  A    between atoms: _421  and  _423
REMARK  177  A    between atoms: _423  and  _424
REMARK  178  A    between atoms: _423  and  _426
REMARK  179  A    between atoms: _426  and  _427
REMARK  180  A    between atoms: _430  and  _432
REMARK  181  A    between atoms: _432  and  _433
REMARK  182  A    between atoms: _435  and  _437
REMARK  183  A    between atoms: _437  and  _438
REMARK  184  A    between atoms: _440  and  _442
REMARK  185  A    between atoms: _442  and  _443
REMARK  186  A    between atoms: _442  and  _445
REMARK  187  A    between atoms: _445  and  _446
REMARK  188  A    between atoms: _449  and  _451
REMARK  189  A    between atoms: _451  and  _452
REMARK  190  A    between atoms: _451  and  _454
REMARK  191  A    between atoms: _457  and  _459
REMARK  192  A    between atoms: _459  and  _460
REMARK  193  A    between atoms: _459  and  _462
REMARK  194  A    between atoms: _462  and  _463
REMARK  195  A    between atoms: _467  and  _468
REMARK  196  A    between atoms: _473  and  _475
REMARK  197  A    between atoms: _475  and  _476
REMARK  198  A    between atoms: _475  and  _478
REMARK  199  A    between atoms: _478  and  _479
REMARK  200  A    between atoms: _483  and  _484
REMARK  201  A    between atoms: _489  and  _491
REMARK  202  A    between atoms: _491  and  _492
REMARK  203  A    between atoms: _491  and  _494
REMARK  204  A    between atoms: _497  and  _499
REMARK  205  A    between atoms: _499  and  _500
REMARK  206  A    between atoms: _499  and  _502
REMARK  207  A    between atoms: _502  and  _503
REMARK  208  A    between atoms: _508  and  _510
REMARK  209  A    between atoms: _510  and  _511
REMARK  210  A    between atoms: _510  and  _513
REMARK  211  A    between atoms: _513  and  _514
REMARK  212  A    between atoms: _517  and  _519
REMARK  213  A    between atoms: _519  and  _520
REMARK  214  A    between atoms: _519  and  _522
REMARK  215  A    between atoms: _522  and  _523
REMARK  216  A    between atoms: _526  and  _528
REMARK  217  A    between atoms: _528  and  _529
REMARK  218  A    between atoms: _531  and  _533
REMARK  219  A    between atoms: _533  and  _534
REMARK  220  A    between atoms: _533  and  _536
REMARK  221  A    between atoms: _536  and  _537
REMARK  222  A    between atoms: _537  and  _538
REMARK  223  A    between atoms: _538  and  _539
REMARK  224  A    between atoms: _548  and  _550
REMARK  225  A    between atoms: _550  and  _551
REMARK  226  A    between atoms: _550  and  _553
REMARK  227  A    between atoms: _553  and  _554
REMARK                            x       y       z     vdW  Elec       q    Type
REMARK                         _______ _______ _______ _____ _____    ______ ____
ROOT
ATOM      1  CA  VAL A   4      17.197  22.456  13.938  0.00  0.00    +0.149 C 
ENDROOT
BRANCH   1   2
ATOM      2  C   VAL A   4      16.645  23.855  14.009  0.00  0.00    +0.241 C 
ATOM      3  N   ASN A   5      17.489  24.739  14.510  0.00  0.00    -0.297 N 
ATOM      4  H   ASN A   5      18.409  24.423  14.877  0.00  0.00    +0.150 HD
ATOM      5  O   VAL A   4      15.461  24.086  13.742  0.00  0.00    -0.273 OA
BRANCH   3   6
ATOM      6  CA  ASN A   5      17.149  26.126  14.552  0.00  0.00    +0.158 C 
BRANCH   6   7
ATOM      7  C   ASN A   5      17.225  26.704  13.170  0.00  0.00    +0.241 C 
ATOM      8  N   ILE A   6      16.139  27.278  12.687  0.00  0.00    -0.298 N 
ATOM      9  H   ILE A   6      15.313  27.332  13.317  0.00  0.00    +0.150 HD
ATOM     10  O   ASN A   5      18.283  26.631  12.588  0.00  0.00    -0.273 OA
BRANCH   8  11
ATOM     11  CA  ILE A   6      15.992  27.844  11.350  0.00  0.00    +0.137 C 
BRANCH  11  12
ATOM     12  C   ILE A   6      15.737  29.342  11.363  0.00  0.00    +0.227 C 
ATOM     13  O   ILE A   6      14.698  29.761  11.900  0.00  0.00    -0.286 OA
ENDBRANCH  11  12
BRANCH  11  14
ATOM     14  CB  ILE A   6      14.790  27.102  10.657  0.00  0.00    +0.026 C 
ATOM     15  CG2 ILE A   6      14.434  27.744   9.343  0.00  0.00    +0.002 C 
BRANCH  14  16
ATOM     16  CG1 ILE A   6      15.175  25.667  10.391  0.00  0.00    +0.002 C 
ATOM     17  CD1 ILE A   6      13.820  25.013  10.210  0.00  0.00    +0.000 C 
ENDBRANCH  14  16
ENDBRANCH  11  14
ENDBRANCH   8  11
ENDBRANCH   6   7
BRANCH   6  18
ATOM     18  CB  ASN A   5      18.105  26.849  15.451  0.00  0.00    +0.114 C 
BRANCH  18  19
ATOM     19  CG  ASN A   5      17.864  26.579  16.918  0.00  0.00    +0.222 C 
ATOM     20  ND2 ASN A   5      18.846  26.713  17.775  0.00  0.00    -0.329 N 
ATOM     21 HD21 ASN A   5      18.692  26.496  18.780  0.00  0.00    +0.145 HD
ATOM     22 HD22 ASN A   5      19.780  27.036  17.450  0.00  0.00    +0.145 HD
ATOM     23  OD1 ASN A   5      16.797  26.201  17.342  0.00  0.00    -0.275 OA
ENDBRANCH  18  19
ENDBRANCH   6  18
ENDBRANCH   3   6
ENDBRANCH   1   2
BRANCH   1  26
ATOM     24  C   PRO A   3      16.157  20.401  14.618  0.00  0.00    +0.242 C 
ATOM     25  O   PRO A   3      17.252  19.997  15.006  0.00  0.00    -0.273 OA
ATOM     26  N   VAL A   4      16.032  21.624  14.083  0.00  0.00    -0.297 N 
ATOM     27  H   VAL A   4      15.100  21.969  13.775  0.00  0.00    +0.150 HD
BRANCH  24  31
ATOM     28  C   THR A   2      13.323  20.948  15.542  0.00  0.00    +0.250 C 
ATOM     29  O   THR A   2      13.944  21.113  16.606  0.00  0.00    -0.273 OA
ATOM     30  N   PRO A   3      13.738  20.100  14.592  0.00  0.00    -0.249 N 
ATOM     31  CA  PRO A   3      15.009  19.427  14.668  0.00  0.00    +0.160 C 
ATOM     32  CB  PRO A   3      15.056  18.468  13.496  0.00  0.00    +0.057 C 
ATOM     33  CG  PRO A   3      13.829  18.727  12.613  0.00  0.00    -0.008 C 
ATOM     34  CD  PRO A   3      13.047  19.821  13.312  0.00  0.00    +0.063 C 
BRANCH  28  35
ATOM     35  CA  THR A   2      12.031  21.718  15.240  0.00  0.00    +0.176 C 
BRANCH  35  37
ATOM     36  C   PRO A   1      10.643  20.757  16.907  0.00  0.00    +0.239 C 
ATOM     37  N   THR A   2      11.355  21.771  16.500  0.00  0.00    -0.295 N 
ATOM     38  H   THR A   2      11.432  22.622  17.094  0.00  0.00    +0.150 HD
ATOM     39  O   PRO A   1      10.573  19.771  16.204  0.00  0.00    -0.274 OA
BRANCH  36  44
ATOM     40  N   PRO A   1       9.141  21.968  18.371  0.00  0.00    -0.210 NA
ATOM     41  CD  PRO A   1       7.730  21.635  18.490  0.00  0.00    +0.089 C 
ATOM     42  CG  PRO A   1       7.704  20.208  18.058  0.00  0.00    +0.021 C 
ATOM     43  CB  PRO A   1       9.026  19.646  18.517  0.00  0.00    +0.028 C 
ATOM     44  CA  PRO A   1       9.971  20.794  18.251  0.00  0.00    +0.149 C 
ENDBRANCH  36  44
ENDBRANCH  35  37
BRANCH  35  45
ATOM     45  CB  THR A   2      12.298  23.145  14.770  0.00  0.00    +0.137 C 
ATOM     46  CG2 THR A   2      13.049  23.980  15.749  0.00  0.00    +0.034 C 
BRANCH  45  47
ATOM     47  OG1 THR A   2      13.093  23.007  13.601  0.00  0.00    -0.382 OA
ATOM     48  HG1 THR A   2      13.933  22.534  13.828  0.00  0.00    +0.210 HD
ENDBRANCH  45  47
ENDBRANCH  35  45
ENDBRANCH  28  35
ENDBRANCH  24  31
ENDBRANCH   1  26
BRANCH   1  49
ATOM     49  CB  VAL A   4      17.907  22.095  12.562  0.00  0.00    +0.027 C 
ATOM     50  CG2 VAL A   4      19.145  22.890  12.409  0.00  0.00    +0.002 C 
ATOM     51  CG1 VAL A   4      17.117  22.488  11.374  0.00  0.00    +0.002 C 
ENDBRANCH   1  49
TORSDOF 17
REMARK  Name = ../refined-set-2016/1hxw/1hxw_pocket.pdb
REMARK  227 active torsions:
REMARK  status: ('A' for Active; 'I' for Inactive)
REMARK    1  A    between atoms: _1  and  _3
REMARK    2  A    between atoms: _3  and  _4
REMARK    3  A    between atoms: _3  and  _6
REMARK    4  A    between atoms: _6  and  _7
REMARK    5  A    between atoms: _7  and  _8
REMARK    6  A    between atoms: _8  and  _9
REMARK    7  A    between atoms: _18  and  _20
REMARK    8  A    between atoms: _20  and  _21
REMARK    9  A    between atoms: _20  and  _23
REMARK   10  A    between atoms: _23  and  _24
REMARK   11  A    between atoms: _27  and  _29
REMARK   12  A    between atoms: _29  and  _30
REMARK   13  A    between atoms: _29  and  _32
REMARK   14  A    between atoms: _32  and  _33
REMARK   15  A    between atoms: _36  and  _38
REMARK   16  A    between atoms: _38  and  _39
REMARK   17  A    between atoms: _38  and  _41
REMARK   18  A    between atoms: _41  and  _42
REMARK   19  A    between atoms: _45  and  _47
REMARK   20  A    between atoms: _47  and  _48
REMARK   21  A    between atoms: _47  and  _50
REMARK   22  A    between atoms: _50  and  _51
REMARK   23  A    between atoms: _54  and  _56
REMARK   24  A    between atoms: _56  and  _57
REMARK   25  A    between atoms: _59  and  _61
REMARK   26  A    between atoms: _61  and  _62
REMARK   27  A    between atoms: _65  and  _67
REMARK   28  A    between atoms: _67  and  _68
REMARK   29  A    between atoms: _67  and  _70
REMARK   30  A    between atoms: _70  and  _71
REMARK   31  A    between atoms: _74  and  _76
REMARK   32  A    between atoms: _76  and  _77
REMARK   33  A    between atoms: _76  and  _79
REMARK   34  A    between atoms: _79  and  _80
REMARK   35  A    between atoms: _83  and  _85
REMARK   36  A    between atoms: _85  and  _86
REMARK   37  A    between atoms: _85  and  _88
REMARK   38  A    between atoms: _88  and  _89
REMARK   39  A    between atoms: _92  and  _94
REMARK   40  A    between atoms: _94  and  _95
REMARK   41  A    between atoms: _94  and  _97
REMARK   42  A    between atoms: _100  and  _102
REMARK   43  A    between atoms: _102  and  _103
REMARK   44  A    between atoms: _102  and  _105
REMARK   45  A    between atoms: _105  and  _106
REMARK   46  A    between atoms: _106  and  _107
REMARK   47  A    between atoms: _107  and  _108
REMARK   48  A    between atoms: _108  and  _109
REMARK   49  A    between atoms: _113  and  _115
REMARK   50  A    between atoms: _115  and  _116
REMARK   51  A    between atoms: _115  and  _118
REMARK   52  A    between atoms: _118  and  _119
REMARK   53  A    between atoms: _119  and  _120
REMARK   54  A    between atoms: _122  and  _124
REMARK   55  A    between atoms: _124  and  _125
REMARK   56  A    between atoms: _124  and  _127
REMARK   57  A    between atoms: _127  and  _128
REMARK   58  A    between atoms: _131  and  _133
REMARK   59  A    between atoms: _133  and  _134
REMARK   60  A    between atoms: _136  and  _138
REMARK   61  A    between atoms: _138  and  _139
REMARK   62  A    between atoms: _141  and  _143
REMARK   63  A    between atoms: _143  and  _144
REMARK   64  A    between atoms: _143  and  _146
REMARK   65  A    between atoms: _146  and  _147
REMARK   66  A    between atoms: _150  and  _152
REMARK   67  A    between atoms: _152  and  _153
REMARK   68  A    between atoms: _155  and  _157
REMARK   69  A    between atoms: _157  and  _158
REMARK   70  A    between atoms: _160  and  _162
REMARK   71  A    between atoms: _162  and  _163
REMARK   72  A    between atoms: _162  and  _165
REMARK   73  A    between atoms: _165  and  _166
REMARK   74  A    between atoms: _172  and  _174
REMARK   75  A    between atoms: _174  and  _175
REMARK   76  A    between atoms: _174  and  _177
REMARK   77  A    between atoms: _177  and  _178
REMARK   78  A    between atoms: _181  and  _183
REMARK   79  A    between atoms: _183  and  _184
REMARK   80  A    between atoms: _183  and  _186
REMARK   81  A    between atoms: _186  and  _187
REMARK   82  A    between atoms: _191  and  _192
REMARK   83  A    between atoms: _197  and  _199
REMARK   84  A    between atoms: _199  and  _200
REMARK   85  A    between atoms: _199  and  _202
REMARK   86  A    between atoms: _202  and  _203
REMARK   87  A    between atoms: _207  and  _208
REMARK   88  A    between atoms: _213  and  _215
REMARK   89  A    between atoms: _215  and  _216
REMARK   90  A    between atoms: _215  and  _218
REMARK   91  A    between atoms: _221  and  _223
REMARK   92  A    between atoms: _223  and  _224
REMARK   93  A    between atoms: _223  and  _226
REMARK   94  A    between atoms: _226  and  _227
REMARK   95  A    between atoms: _232  and  _234
REMARK   96  A    between atoms: _234  and  _235
REMARK   97  A    between atoms: _234  and  _237
REMARK   98  A    between atoms: _237  and  _238
REMARK   99  A    between atoms: _241  and  _243
REMARK  100  A    between atoms: _243  and  _244
REMARK  101  A    between atoms: _246  and  _248
REMARK  102  A    between atoms: _248  and  _249
REMARK  103  A    between atoms: _248  and  _251
REMARK  104  A    between atoms: _251  and  _252
REMARK  105  A    between atoms: _252  and  _253
REMARK  106  A    between atoms: _253  and  _254
REMARK  107  A    between atoms: _263  and  _265
REMARK  108  A    between atoms: _265  and  _266
REMARK  109  A    between atoms: _265  and  _268
REMARK  110  A    between atoms: _268  and  _269
REMARK  111  A    between atoms: _269  and  _270
REMARK  112  A    between atoms: _270  and  _271
REMARK  113  A    between atoms: _280  and  _282
REMARK  114  A    between atoms: _282  and  _283
REMARK  115  A    between atoms: _282  and  _285
REMARK  116  A    between atoms: _285  and  _286
REMARK  117  A    between atoms: _289  and  _291
REMARK  118  A    between atoms: _291  and  _292
REMARK  119  A    between atoms: _291  and  _294
REMARK  120  A    between atoms: _294  and  _295
REMARK  121  A    between atoms: _298  and  _300
REMARK  122  A    between atoms: _300  and  _301
REMARK  123  A    between atoms: _300  and  _303
REMARK  124  A    between atoms: _303  and  _304
REMARK  125  A    between atoms: _307  and  _309
REMARK  126  A    between atoms: _309  and  _310
REMARK  127  A    between atoms: _309  and  _312
REMARK  128  A    between atoms: _312  and  _313
REMARK  129  A    between atoms: _316  and  _318
REMARK  130  A    between atoms: _318  and  _319
REMARK  131  A    between atoms: _318  and  _321
REMARK  132  A    between atoms: _321  and  _322
REMARK  133  A    between atoms: _325  and  _327
REMARK  134  A    between atoms: _327  and  _328
REMARK  135  A    between atoms: _330  and  _332
REMARK  136  A    between atoms: _332  and  _333
REMARK  137  A    between atoms: _336  and  _338
REMARK  138  A    between atoms: _338  and  _339
REMARK  139  A    between atoms: _338  and  _341
REMARK  140  A    between atoms: _341  and  _342
REMARK  141  A    between atoms: _345  and  _347
REMARK  142  A    between atoms: _347  and  _348
REMARK  143  A    between atoms: _347  and  _350
REMARK  144  A    between atoms: _350  and  _351
REMARK  145  A    between atoms: _354  and  _356
REMARK  146  A    between atoms: _356  and  _357
REMARK  147  A    between atoms: _356  and  _359
REMARK  148  A    between atoms: _359  and  _360
REMARK  149  A    between atoms: _363  and  _365
REMARK  150  A    between atoms: _365  and  _366
REMARK  151  A    between atoms: _365  and  _368
REMARK  152  A    between atoms: _371  and  _373
REMARK  153  A    between atoms: _373  and  _374
REMARK  154  A    between atoms: _373  and  _376
REMARK  155  A    between atoms: _376  and  _377
REMARK  156  A    between atoms: _380  and  _382
REMARK  157  A    between atoms: _382  and  _383
REMARK  158  A    between atoms: _382  and  _385
REMARK  159  A    between atoms: _385  and  _386
REMARK  160  A    between atoms: _386  and  _387
REMARK  161  A    between atoms: _387  and  _388
REMARK  162  A    between atoms: _388  and  _389
REMARK  163  A    between atoms: _393  and  _395
REMARK  164  A    between atoms: _395  and  _396
REMARK  165  A    between atoms: _395  and  _398
REMARK  166  A    between atoms: _398  and  _399
REMARK  167  A    between atoms: _399  and  _400
REMARK  168  A    between atoms: _402  and  _404
REMARK  169  A    between atoms: _404  and  _405
REMARK  170  A    between atoms: _404  and  _407
REMARK  171  A    between atoms: _407  and  _408
REMARK  172  A    between atoms: _411  and  _413
REMARK  173  A    between atoms: _413  and  _414
REMARK  174  A    between atoms: _416  and  _418
REMARK  175  A    between atoms: _418  and  _419
REMARK  176  A    between atoms: _421  and  _423
REMARK  177  A    between atoms: _423  and  _424
REMARK  178  A    between atoms: _423  and  _426
REMARK  179  A    between atoms: _426  and  _427
REMARK  180  A    between atoms: _430  and  _432
REMARK  181  A    between atoms: _432  and  _433
REMARK  182  A    between atoms: _435  and  _437
REMARK  183  A    between atoms: _437  and  _438
REMARK  184  A    between atoms: _440  and  _442
REMARK  185  A    between atoms: _442  and  _443
REMARK  186  A    between atoms: _442  and  _445
REMARK  187  A    between atoms: _445  and  _446
REMARK  188  A    between atoms: _449  and  _451
REMARK  189  A    between atoms: _451  and  _452
REMARK  190  A    between atoms: _451  and  _454
REMARK  191  A    between atoms: _457  and  _459
REMARK  192  A    between atoms: _459  and  _460
REMARK  193  A    between atoms: _459  and  _462
REMARK  194  A    between atoms: _462  and  _463
REMARK  195  A    between atoms: _467  and  _468
REMARK  196  A    between atoms: _473  and  _475
REMARK  197  A    between atoms: _475  and  _476
REMARK  198  A    between atoms: _475  and  _478
REMARK  199  A    between atoms: _478  and  _479
REMARK  200  A    between atoms: _483  and  _484
REMARK  201  A    between atoms: _489  and  _491
REMARK  202  A    between atoms: _491  and  _492
REMARK  203  A    between atoms: _491  and  _494
REMARK  204  A    between atoms: _497  and  _499
REMARK  205  A    between atoms: _499  and  _500
REMARK  206  A    between atoms: _499  and  _502
REMARK  207  A    between atoms: _502  and  _503
REMARK  208  A    between atoms: _508  and  _510
REMARK  209  A    between atoms: _510  and  _511
REMARK  210  A    between atoms: _510  and  _513
REMARK  211  A    between atoms: _513  and  _514
REMARK  212  A    between atoms: _517  and  _519
REMARK  213  A    between atoms: _519  and  _520
REMARK  214  A    between atoms: _519  and  _522
REMARK  215  A    between atoms: _522  and  _523
REMARK  216  A    between atoms: _526  and  _528
REMARK  217  A    between atoms: _528  and  _529
REMARK  218  A    between atoms: _531  and  _533
REMARK  219  A    between atoms: _533  and  _534
REMARK  220  A    between atoms: _533  and  _536
REMARK  221  A    between atoms: _536  and  _537
REMARK  222  A    between atoms: _537  and  _538
REMARK  223  A    between atoms: _538  and  _539
REMARK  224  A    between atoms: _548  and  _550
REMARK  225  A    between atoms: _550  and  _551
REMARK  226  A    between atoms: _550  and  _553
REMARK  227  A    between atoms: _553  and  _554
REMARK                            x       y       z     vdW  Elec       q    Type
REMARK                         _______ _______ _______ _____ _____    ______ ____
ROOT
ATOM      1  CB  ARG A   2      12.374  34.506   3.832  0.00  0.00    +0.031 C 
ENDROOT
BRANCH   1   2
ATOM      2  CA  ARG A   2      13.130  34.654   5.099  0.00  0.00    +0.137 C 
BRANCH   2   5
ATOM      3  C   GLY A   1      13.691  33.282   7.022  0.00  0.00    +0.240 C 
ATOM      4  O   GLY A   1      14.259  34.224   7.558  0.00  0.00    -0.274 OA
ATOM      5  N   ARG A   2      13.101  33.426   5.842  0.00  0.00    -0.298 N 
ATOM      6  H   ARG A   2      12.595  32.613   5.437  0.00  0.00    +0.150 HD
BRANCH   3   7
ATOM      7  CA  GLY A   1      13.660  31.911   7.671  0.00  0.00    +0.169 C 
BRANCH   7   8
ATOM      8  N   GLY A   1      14.387  31.877   8.933  0.00  0.00    -0.236 NA
ATOM      9  H   GLY A   1      13.855  32.094   9.800  0.00  0.00    +0.142 HD
ENDBRANCH   7   8
ENDBRANCH   3   7
ENDBRANCH   2   5
BRANCH   2  10
ATOM     10  C   ARG A   2      12.572  35.880   5.860  0.00  0.00    +0.227 C 
ATOM     11  O   ARG A   2      13.118  36.971   5.615  0.00  0.00    -0.286 OA
ENDBRANCH   2  10
ENDBRANCH   1   2
BRANCH   1  12
ATOM     12  CG  ARG A   2      13.094  33.563   2.870  0.00  0.00    +0.045 C 
BRANCH  12  13
ATOM     13  CD  ARG A   2      12.410  33.636   1.513  0.00  0.00    +0.174 C 
BRANCH  13  14
ATOM     14  NE  ARG A   2      10.978  33.324   1.611  0.00  0.00    -0.265 N 
ATOM     15  HE  ARG A   2      10.729  32.321   1.724  0.00  0.00    +0.259 HD
ATOM     16  CZ  ARG A   2       9.957  34.193   1.570  0.00  0.00    +0.342 C 
ATOM     17  NH2 ARG A   2       8.731  33.709   1.659  0.00  0.00    -0.292 N 
ATOM     18 HH21 ARG A   2       8.582  32.684   1.757  0.00  0.00    +0.255 HD
ATOM     19 HH22 ARG A   2       7.915  34.353   1.631  0.00  0.00    +0.255 HD
ATOM     20  NH1 ARG A   2      10.114  35.515   1.495  0.00  0.00    -0.292 N 
ATOM     21 HH11 ARG A   2       9.281  36.137   1.466  0.00  0.00    +0.255 HD
ATOM     22 HH12 ARG A   2      11.070  35.924   1.465  0.00  0.00    +0.255 HD
ENDBRANCH  13  14
ENDBRANCH  12  13
ENDBRANCH   1  12
TORSDOF 8
REMARK  Name = ../refined-set-2016/1hxw/1hxw_pocket.pdb
REMARK  227 active torsions:
REMARK  status: ('A' for Active; 'I' for Inactive)
REMARK    1  A    between atoms: _1  and  _3
REMARK    2  A    between atoms: _3  and  _4
REMARK    3  A    between atoms: _3  and  _6
REMARK    4  A    between atoms: _6  and  _7
REMARK    5  A    between atoms: _7  and  _8
REMARK    6  A    between atoms: _8  and  _9
REMARK    7  A    between atoms: _18  and  _20
REMARK    8  A    between atoms: _20  and  _21
REMARK    9  A    between atoms: _20  and  _23
REMARK   10  A    between atoms: _23  and  _24
REMARK   11  A    between atoms: _27  and  _29
REMARK   12  A    between atoms: _29  and  _30
REMARK   13  A    between atoms: _29  and  _32
REMARK   14  A    between atoms: _32  and  _33
REMARK   15  A    between atoms: _36  and  _38
REMARK   16  A    between atoms: _38  and  _39
REMARK   17  A    between atoms: _38  and  _41
REMARK   18  A    between atoms: _41  and  _42
REMARK   19  A    between atoms: _45  and  _47
REMARK   20  A    between atoms: _47  and  _48
REMARK   21  A    between atoms: _47  and  _50
REMARK   22  A    between atoms: _50  and  _51
REMARK   23  A    between atoms: _54  and  _56
REMARK   24  A    between atoms: _56  and  _57
REMARK   25  A    between atoms: _59  and  _61
REMARK   26  A    between atoms: _61  and  _62
REMARK   27  A    between atoms: _65  and  _67
REMARK   28  A    between atoms: _67  and  _68
REMARK   29  A    between atoms: _67  and  _70
REMARK   30  A    between atoms: _70  and  _71
REMARK   31  A    between atoms: _74  and  _76
REMARK   32  A    between atoms: _76  and  _77
REMARK   33  A    between atoms: _76  and  _79
REMARK   34  A    between atoms: _79  and  _80
REMARK   35  A    between atoms: _83  and  _85
REMARK   36  A    between atoms: _85  and  _86
REMARK   37  A    between atoms: _85  and  _88
REMARK   38  A    between atoms: _88  and  _89
REMARK   39  A    between atoms: _92  and  _94
REMARK   40  A    between atoms: _94  and  _95
REMARK   41  A    between atoms: _94  and  _97
REMARK   42  A    between atoms: _100  and  _102
REMARK   43  A    between atoms: _102  and  _103
REMARK   44  A    between atoms: _102  and  _105
REMARK   45  A    between atoms: _105  and  _106
REMARK   46  A    between atoms: _106  and  _107
REMARK   47  A    between atoms: _107  and  _108
REMARK   48  A    between atoms: _108  and  _109
REMARK   49  A    between atoms: _113  and  _115
REMARK   50  A    between atoms: _115  and  _116
REMARK   51  A    between atoms: _115  and  _118
REMARK   52  A    between atoms: _118  and  _119
REMARK   53  A    between atoms: _119  and  _120
REMARK   54  A    between atoms: _122  and  _124
REMARK   55  A    between atoms: _124  and  _125
REMARK   56  A    between atoms: _124  and  _127
REMARK   57  A    between atoms: _127  and  _128
REMARK   58  A    between atoms: _131  and  _133
REMARK   59  A    between atoms: _133  and  _134
REMARK   60  A    between atoms: _136  and  _138
REMARK   61  A    between atoms: _138  and  _139
REMARK   62  A    between atoms: _141  and  _143
REMARK   63  A    between atoms: _143  and  _144
REMARK   64  A    between atoms: _143  and  _146
REMARK   65  A    between atoms: _146  and  _147
REMARK   66  A    between atoms: _150  and  _152
REMARK   67  A    between atoms: _152  and  _153
REMARK   68  A    between atoms: _155  and  _157
REMARK   69  A    between atoms: _157  and  _158
REMARK   70  A    between atoms: _160  and  _162
REMARK   71  A    between atoms: _162  and  _163
REMARK   72  A    between atoms: _162  and  _165
REMARK   73  A    between atoms: _165  and  _166
REMARK   74  A    between atoms: _172  and  _174
REMARK   75  A    between atoms: _174  and  _175
REMARK   76  A    between atoms: _174  and  _177
REMARK   77  A    between atoms: _177  and  _178
REMARK   78  A    between atoms: _181  and  _183
REMARK   79  A    between atoms: _183  and  _184
REMARK   80  A    between atoms: _183  and  _186
REMARK   81  A    between atoms: _186  and  _187
REMARK   82  A    between atoms: _191  and  _192
REMARK   83  A    between atoms: _197  and  _199
REMARK   84  A    between atoms: _199  and  _200
REMARK   85  A    between atoms: _199  and  _202
REMARK   86  A    between atoms: _202  and  _203
REMARK   87  A    between atoms: _207  and  _208
REMARK   88  A    between atoms: _213  and  _215
REMARK   89  A    between atoms: _215  and  _216
REMARK   90  A    between atoms: _215  and  _218
REMARK   91  A    between atoms: _221  and  _223
REMARK   92  A    between atoms: _223  and  _224
REMARK   93  A    between atoms: _223  and  _226
REMARK   94  A    between atoms: _226  and  _227
REMARK   95  A    between atoms: _232  and  _234
REMARK   96  A    between atoms: _234  and  _235
REMARK   97  A    between atoms: _234  and  _237
REMARK   98  A    between atoms: _237  and  _238
REMARK   99  A    between atoms: _241  and  _243
REMARK  100  A    between atoms: _243  and  _244
REMARK  101  A    between atoms: _246  and  _248
REMARK  102  A    between atoms: _248  and  _249
REMARK  103  A    between atoms: _248  and  _251
REMARK  104  A    between atoms: _251  and  _252
REMARK  105  A    between atoms: _252  and  _253
REMARK  106  A    between atoms: _253  and  _254
REMARK  107  A    between atoms: _263  and  _265
REMARK  108  A    between atoms: _265  and  _266
REMARK  109  A    between atoms: _265  and  _268
REMARK  110  A    between atoms: _268  and  _269
REMARK  111  A    between atoms: _269  and  _270
REMARK  112  A    between atoms: _270  and  _271
REMARK  113  A    between atoms: _280  and  _282
REMARK  114  A    between atoms: _282  and  _283
REMARK  115  A    between atoms: _282  and  _285
REMARK  116  A    between atoms: _285  and  _286
REMARK  117  A    between atoms: _289  and  _291
REMARK  118  A    between atoms: _291  and  _292
REMARK  119  A    between atoms: _291  and  _294
REMARK  120  A    between atoms: _294  and  _295
REMARK  121  A    between atoms: _298  and  _300
REMARK  122  A    between atoms: _300  and  _301
REMARK  123  A    between atoms: _300  and  _303
REMARK  124  A    between atoms: _303  and  _304
REMARK  125  A    between atoms: _307  and  _309
REMARK  126  A    between atoms: _309  and  _310
REMARK  127  A    between atoms: _309  and  _312
REMARK  128  A    between atoms: _312  and  _313
REMARK  129  A    between atoms: _316  and  _318
REMARK  130  A    between atoms: _318  and  _319
REMARK  131  A    between atoms: _318  and  _321
REMARK  132  A    between atoms: _321  and  _322
REMARK  133  A    between atoms: _325  and  _327
REMARK  134  A    between atoms: _327  and  _328
REMARK  135  A    between atoms: _330  and  _332
REMARK  136  A    between atoms: _332  and  _333
REMARK  137  A    between atoms: _336  and  _338
REMARK  138  A    between atoms: _338  and  _339
REMARK  139  A    between atoms: _338  and  _341
REMARK  140  A    between atoms: _341  and  _342
REMARK  141  A    between atoms: _345  and  _347
REMARK  142  A    between atoms: _347  and  _348
REMARK  143  A    between atoms: _347  and  _350
REMARK  144  A    between atoms: _350  and  _351
REMARK  145  A    between atoms: _354  and  _356
REMARK  146  A    between atoms: _356  and  _357
REMARK  147  A    between atoms: _356  and  _359
REMARK  148  A    between atoms: _359  and  _360
REMARK  149  A    between atoms: _363  and  _365
REMARK  150  A    between atoms: _365  and  _366
REMARK  151  A    between atoms: _365  and  _368
REMARK  152  A    between atoms: _371  and  _373
REMARK  153  A    between atoms: _373  and  _374
REMARK  154  A    between atoms: _373  and  _376
REMARK  155  A    between atoms: _376  and  _377
REMARK  156  A    between atoms: _380  and  _382
REMARK  157  A    between atoms: _382  and  _383
REMARK  158  A    between atoms: _382  and  _385
REMARK  159  A    between atoms: _385  and  _386
REMARK  160  A    between atoms: _386  and  _387
REMARK  161  A    between atoms: _387  and  _388
REMARK  162  A    between atoms: _388  and  _389
REMARK  163  A    between atoms: _393  and  _395
REMARK  164  A    between atoms: _395  and  _396
REMARK  165  A    between atoms: _395  and  _398
REMARK  166  A    between atoms: _398  and  _399
REMARK  167  A    between atoms: _399  and  _400
REMARK  168  A    between atoms: _402  and  _404
REMARK  169  A    between atoms: _404  and  _405
REMARK  170  A    between atoms: _404  and  _407
REMARK  171  A    between atoms: _407  and  _408
REMARK  172  A    between atoms: _411  and  _413
REMARK  173  A    between atoms: _413  and  _414
REMARK  174  A    between atoms: _416  and  _418
REMARK  175  A    between atoms: _418  and  _419
REMARK  176  A    between atoms: _421  and  _423
REMARK  177  A    between atoms: _423  and  _424
REMARK  178  A    between atoms: _423  and  _426
REMARK  179  A    between atoms: _426  and  _427
REMARK  180  A    between atoms: _430  and  _432
REMARK  181  A    between atoms: _432  and  _433
REMARK  182  A    between atoms: _435  and  _437
REMARK  183  A    between atoms: _437  and  _438
REMARK  184  A    between atoms: _440  and  _442
REMARK  185  A    between atoms: _442  and  _443
REMARK  186  A    between atoms: _442  and  _445
REMARK  187  A    between atoms: _445  and  _446
REMARK  188  A    between atoms: _449  and  _451
REMARK  189  A    between atoms: _451  and  _452
REMARK  190  A    between atoms: _451  and  _454
REMARK  191  A    between atoms: _457  and  _459
REMARK  192  A    between atoms: _459  and  _460
REMARK  193  A    between atoms: _459  and  _462
REMARK  194  A    between atoms: _462  and  _463
REMARK  195  A    between atoms: _467  and  _468
REMARK  196  A    between atoms: _473  and  _475
REMARK  197  A    between atoms: _475  and  _476
REMARK  198  A    between atoms: _475  and  _478
REMARK  199  A    between atoms: _478  and  _479
REMARK  200  A    between atoms: _483  and  _484
REMARK  201  A    between atoms: _489  and  _491
REMARK  202  A    between atoms: _491  and  _492
REMARK  203  A    between atoms: _491  and  _494
REMARK  204  A    between atoms: _497  and  _499
REMARK  205  A    between atoms: _499  and  _500
REMARK  206  A    between atoms: _499  and  _502
REMARK  207  A    between atoms: _502  and  _503
REMARK  208  A    between atoms: _508  and  _510
REMARK  209  A    between atoms: _510  and  _511
REMARK  210  A    between atoms: _510  and  _513
REMARK  211  A    between atoms: _513  and  _514
REMARK  212  A    between atoms: _517  and  _519
REMARK  213  A    between atoms: _519  and  _520
REMARK  214  A    between atoms: _519  and  _522
REMARK  215  A    between atoms: _522  and  _523
REMARK  216  A    between atoms: _526  and  _528
REMARK  217  A    between atoms: _528  and  _529
REMARK  218  A    between atoms: _531  and  _533
REMARK  219  A    between atoms: _533  and  _534
REMARK  220  A    between atoms: _533  and  _536
REMARK  221  A    between atoms: _536  and  _537
REMARK  222  A    between atoms: _537  and  _538
REMARK  223  A    between atoms: _538  and  _539
REMARK  224  A    between atoms: _548  and  _550
REMARK  225  A    between atoms: _550  and  _551
REMARK  226  A    between atoms: _550  and  _553
REMARK  227  A    between atoms: _553  and  _554
REMARK                            x       y       z     vdW  Elec       q    Type
REMARK                         _______ _______ _______ _____ _____    ______ ____
ROOT
ATOM      1  NE  ARG A   1       6.781  30.444   0.029  0.00  0.00    -0.265 N 
ATOM      2  HE  ARG A   1       7.255  30.733   0.909  0.00  0.00    +0.259 HD
ATOM      3  CZ  ARG A   1       5.476  30.119   0.083  0.00  0.00    +0.342 C 
ATOM      4  NH2 ARG A   1       4.803  30.152   1.207  0.00  0.00    -0.292 N 
ATOM      5 HH21 ARG A   1       5.277  30.435   2.089  0.00  0.00    +0.255 HD
ATOM      6 HH22 ARG A   1       3.795  29.895   1.217  0.00  0.00    +0.255 HD
ATOM      7  NH1 ARG A   1       4.758  29.683  -0.964  0.00  0.00    -0.292 N 
ATOM      8 HH11 ARG A   1       3.751  29.451  -0.844  0.00  0.00    +0.255 HD
ATOM      9 HH12 ARG A   1       5.208  29.577  -1.895  0.00  0.00    +0.255 HD
ENDROOT
BRANCH   1  10
ATOM     10  CD  ARG A   1       7.561  30.411  -1.195  0.00  0.00    +0.174 C 
BRANCH  10  11
ATOM     11  CG  ARG A   1       8.538  31.494  -1.050  0.00  0.00    +0.045 C 
BRANCH  11  12
ATOM     12  CB  ARG A   1       9.214  31.733  -2.318  0.00  0.00    +0.029 C 
BRANCH  12  13
ATOM     13  CA  ARG A   1      10.248  32.766  -2.013  0.00  0.00    +0.133 C 
BRANCH  13  14
ATOM     14  N   ARG A   1       9.655  34.075  -1.893  0.00  0.00    -0.239 NA
ATOM     15  H   ARG A   1       8.617  34.126  -1.870  0.00  0.00    +0.142 HD
ENDBRANCH  13  14
BRANCH  13  16
ATOM     16  C   ARG A   1      11.227  32.750  -3.139  0.00  0.00    +0.224 C 
ATOM     17  O   ARG A   1      10.846  33.287  -4.187  0.00  0.00    -0.287 OA
ENDBRANCH  13  16
ENDBRANCH  12  13
ENDBRANCH  11  12
ENDBRANCH  10  11
ENDBRANCH   1  10
TORSDOF 6
REMARK  Name = ../refined-set-2016/1hxw/1hxw_pocket.pdb
REMARK  227 active torsions:
REMARK  status: ('A' for Active; 'I' for Inactive)
REMARK    1  A    between atoms: _1  and  _3
REMARK    2  A    between atoms: _3  and  _4
REMARK    3  A    between atoms: _3  and  _6
REMARK    4  A    between atoms: _6  and  _7
REMARK    5  A    between atoms: _7  and  _8
REMARK    6  A    between atoms: _8  and  _9
REMARK    7  A    between atoms: _18  and  _20
REMARK    8  A    between atoms: _20  and  _21
REMARK    9  A    between atoms: _20  and  _23
REMARK   10  A    between atoms: _23  and  _24
REMARK   11  A    between atoms: _27  and  _29
REMARK   12  A    between atoms: _29  and  _30
REMARK   13  A    between atoms: _29  and  _32
REMARK   14  A    between atoms: _32  and  _33
REMARK   15  A    between atoms: _36  and  _38
REMARK   16  A    between atoms: _38  and  _39
REMARK   17  A    between atoms: _38  and  _41
REMARK   18  A    between atoms: _41  and  _42
REMARK   19  A    between atoms: _45  and  _47
REMARK   20  A    between atoms: _47  and  _48
REMARK   21  A    between atoms: _47  and  _50
REMARK   22  A    between atoms: _50  and  _51
REMARK   23  A    between atoms: _54  and  _56
REMARK   24  A    between atoms: _56  and  _57
REMARK   25  A    between atoms: _59  and  _61
REMARK   26  A    between atoms: _61  and  _62
REMARK   27  A    between atoms: _65  and  _67
REMARK   28  A    between atoms: _67  and  _68
REMARK   29  A    between atoms: _67  and  _70
REMARK   30  A    between atoms: _70  and  _71
REMARK   31  A    between atoms: _74  and  _76
REMARK   32  A    between atoms: _76  and  _77
REMARK   33  A    between atoms: _76  and  _79
REMARK   34  A    between atoms: _79  and  _80
REMARK   35  A    between atoms: _83  and  _85
REMARK   36  A    between atoms: _85  and  _86
REMARK   37  A    between atoms: _85  and  _88
REMARK   38  A    between atoms: _88  and  _89
REMARK   39  A    between atoms: _92  and  _94
REMARK   40  A    between atoms: _94  and  _95
REMARK   41  A    between atoms: _94  and  _97
REMARK   42  A    between atoms: _100  and  _102
REMARK   43  A    between atoms: _102  and  _103
REMARK   44  A    between atoms: _102  and  _105
REMARK   45  A    between atoms: _105  and  _106
REMARK   46  A    between atoms: _106  and  _107
REMARK   47  A    between atoms: _107  and  _108
REMARK   48  A    between atoms: _108  and  _109
REMARK   49  A    between atoms: _113  and  _115
REMARK   50  A    between atoms: _115  and  _116
REMARK   51  A    between atoms: _115  and  _118
REMARK   52  A    between atoms: _118  and  _119
REMARK   53  A    between atoms: _119  and  _120
REMARK   54  A    between atoms: _122  and  _124
REMARK   55  A    between atoms: _124  and  _125
REMARK   56  A    between atoms: _124  and  _127
REMARK   57  A    between atoms: _127  and  _128
REMARK   58  A    between atoms: _131  and  _133
REMARK   59  A    between atoms: _133  and  _134
REMARK   60  A    between atoms: _136  and  _138
REMARK   61  A    between atoms: _138  and  _139
REMARK   62  A    between atoms: _141  and  _143
REMARK   63  A    between atoms: _143  and  _144
REMARK   64  A    between atoms: _143  and  _146
REMARK   65  A    between atoms: _146  and  _147
REMARK   66  A    between atoms: _150  and  _152
REMARK   67  A    between atoms: _152  and  _153
REMARK   68  A    between atoms: _155  and  _157
REMARK   69  A    between atoms: _157  and  _158
REMARK   70  A    between atoms: _160  and  _162
REMARK   71  A    between atoms: _162  and  _163
REMARK   72  A    between atoms: _162  and  _165
REMARK   73  A    between atoms: _165  and  _166
REMARK   74  A    between atoms: _172  and  _174
REMARK   75  A    between atoms: _174  and  _175
REMARK   76  A    between atoms: _174  and  _177
REMARK   77  A    between atoms: _177  and  _178
REMARK   78  A    between atoms: _181  and  _183
REMARK   79  A    between atoms: _183  and  _184
REMARK   80  A    between atoms: _183  and  _186
REMARK   81  A    between atoms: _186  and  _187
REMARK   82  A    between atoms: _191  and  _192
REMARK   83  A    between atoms: _197  and  _199
REMARK   84  A    between atoms: _199  and  _200
REMARK   85  A    between atoms: _199  and  _202
REMARK   86  A    between atoms: _202  and  _203
REMARK   87  A    between atoms: _207  and  _208
REMARK   88  A    between atoms: _213  and  _215
REMARK   89  A    between atoms: _215  and  _216
REMARK   90  A    between atoms: _215  and  _218
REMARK   91  A    between atoms: _221  and  _223
REMARK   92  A    between atoms: _223  and  _224
REMARK   93  A    between atoms: _223  and  _226
REMARK   94  A    between atoms: _226  and  _227
REMARK   95  A    between atoms: _232  and  _234
REMARK   96  A    between atoms: _234  and  _235
REMARK   97  A    between atoms: _234  and  _237
REMARK   98  A    between atoms: _237  and  _238
REMARK   99  A    between atoms: _241  and  _243
REMARK  100  A    between atoms: _243  and  _244
REMARK  101  A    between atoms: _246  and  _248
REMARK  102  A    between atoms: _248  and  _249
REMARK  103  A    between atoms: _248  and  _251
REMARK  104  A    between atoms: _251  and  _252
REMARK  105  A    between atoms: _252  and  _253
REMARK  106  A    between atoms: _253  and  _254
REMARK  107  A    between atoms: _263  and  _265
REMARK  108  A    between atoms: _265  and  _266
REMARK  109  A    between atoms: _265  and  _268
REMARK  110  A    between atoms: _268  and  _269
REMARK  111  A    between atoms: _269  and  _270
REMARK  112  A    between atoms: _270  and  _271
REMARK  113  A    between atoms: _280  and  _282
REMARK  114  A    between atoms: _282  and  _283
REMARK  115  A    between atoms: _282  and  _285
REMARK  116  A    between atoms: _285  and  _286
REMARK  117  A    between atoms: _289  and  _291
REMARK  118  A    between atoms: _291  and  _292
REMARK  119  A    between atoms: _291  and  _294
REMARK  120  A    between atoms: _294  and  _295
REMARK  121  A    between atoms: _298  and  _300
REMARK  122  A    between atoms: _300  and  _301
REMARK  123  A    between atoms: _300  and  _303
REMARK  124  A    between atoms: _303  and  _304
REMARK  125  A    between atoms: _307  and  _309
REMARK  126  A    between atoms: _309  and  _310
REMARK  127  A    between atoms: _309  and  _312
REMARK  128  A    between atoms: _312  and  _313
REMARK  129  A    between atoms: _316  and  _318
REMARK  130  A    between atoms: _318  and  _319
REMARK  131  A    between atoms: _318  and  _321
REMARK  132  A    between atoms: _321  and  _322
REMARK  133  A    between atoms: _325  and  _327
REMARK  134  A    between atoms: _327  and  _328
REMARK  135  A    between atoms: _330  and  _332
REMARK  136  A    between atoms: _332  and  _333
REMARK  137  A    between atoms: _336  and  _338
REMARK  138  A    between atoms: _338  and  _339
REMARK  139  A    between atoms: _338  and  _341
REMARK  140  A    between atoms: _341  and  _342
REMARK  141  A    between atoms: _345  and  _347
REMARK  142  A    between atoms: _347  and  _348
REMARK  143  A    between atoms: _347  and  _350
REMARK  144  A    between atoms: _350  and  _351
REMARK  145  A    between atoms: _354  and  _356
REMARK  146  A    between atoms: _356  and  _357
REMARK  147  A    between atoms: _356  and  _359
REMARK  148  A    between atoms: _359  and  _360
REMARK  149  A    between atoms: _363  and  _365
REMARK  150  A    between atoms: _365  and  _366
REMARK  151  A    between atoms: _365  and  _368
REMARK  152  A    between atoms: _371  and  _373
REMARK  153  A    between atoms: _373  and  _374
REMARK  154  A    between atoms: _373  and  _376
REMARK  155  A    between atoms: _376  and  _377
REMARK  156  A    between atoms: _380  and  _382
REMARK  157  A    between atoms: _382  and  _383
REMARK  158  A    between atoms: _382  and  _385
REMARK  159  A    between atoms: _385  and  _386
REMARK  160  A    between atoms: _386  and  _387
REMARK  161  A    between atoms: _387  and  _388
REMARK  162  A    between atoms: _388  and  _389
REMARK  163  A    between atoms: _393  and  _395
REMARK  164  A    between atoms: _395  and  _396
REMARK  165  A    between atoms: _395  and  _398
REMARK  166  A    between atoms: _398  and  _399
REMARK  167  A    between atoms: _399  and  _400
REMARK  168  A    between atoms: _402  and  _404
REMARK  169  A    between atoms: _404  and  _405
REMARK  170  A    between atoms: _404  and  _407
REMARK  171  A    between atoms: _407  and  _408
REMARK  172  A    between atoms: _411  and  _413
REMARK  173  A    between atoms: _413  and  _414
REMARK  174  A    between atoms: _416  and  _418
REMARK  175  A    between atoms: _418  and  _419
REMARK  176  A    between atoms: _421  and  _423
REMARK  177  A    between atoms: _423  and  _424
REMARK  178  A    between atoms: _423  and  _426
REMARK  179  A    between atoms: _426  and  _427
REMARK  180  A    between atoms: _430  and  _432
REMARK  181  A    between atoms: _432  and  _433
REMARK  182  A    between atoms: _435  and  _437
REMARK  183  A    between atoms: _437  and  _438
REMARK  184  A    between atoms: _440  and  _442
REMARK  185  A    between atoms: _442  and  _443
REMARK  186  A    between atoms: _442  and  _445
REMARK  187  A    between atoms: _445  and  _446
REMARK  188  A    between atoms: _449  and  _451
REMARK  189  A    between atoms: _451  and  _452
REMARK  190  A    between atoms: _451  and  _454
REMARK  191  A    between atoms: _457  and  _459
REMARK  192  A    between atoms: _459  and  _460
REMARK  193  A    between atoms: _459  and  _462
REMARK  194  A    between atoms: _462  and  _463
REMARK  195  A    between atoms: _467  and  _468
REMARK  196  A    between atoms: _473  and  _475
REMARK  197  A    between atoms: _475  and  _476
REMARK  198  A    between atoms: _475  and  _478
REMARK  199  A    between atoms: _478  and  _479
REMARK  200  A    between atoms: _483  and  _484
REMARK  201  A    between atoms: _489  and  _491
REMARK  202  A    between atoms: _491  and  _492
REMARK  203  A    between atoms: _491  and  _494
REMARK  204  A    between atoms: _497  and  _499
REMARK  205  A    between atoms: _499  and  _500
REMARK  206  A    between atoms: _499  and  _502
REMARK  207  A    between atoms: _502  and  _503
REMARK  208  A    between atoms: _508  and  _510
REMARK  209  A    between atoms: _510  and  _511
REMARK  210  A    between atoms: _510  and  _513
REMARK  211  A    between atoms: _513  and  _514
REMARK  212  A    between atoms: _517  and  _519
REMARK  213  A    between atoms: _519  and  _520
REMARK  214  A    between atoms: _519  and  _522
REMARK  215  A    between atoms: _522  and  _523
REMARK  216  A    between atoms: _526  and  _528
REMARK  217  A    between atoms: _528  and  _529
REMARK  218  A    between atoms: _531  and  _533
REMARK  219  A    between atoms: _533  and  _534
REMARK  220  A    between atoms: _533  and  _536
REMARK  221  A    between atoms: _536  and  _537
REMARK  222  A    between atoms: _537  and  _538
REMARK  223  A    between atoms: _538  and  _539
REMARK  224  A    between atoms: _548  and  _550
REMARK  225  A    between atoms: _550  and  _551
REMARK  226  A    between atoms: _550  and  _553
REMARK  227  A    between atoms: _553  and  _554
REMARK                            x       y       z     vdW  Elec       q    Type
REMARK                         _______ _______ _______ _____ _____    ______ ____
ROOT
ATOM      1  CA  LEU A   1      11.638  30.166  -6.814  0.00  0.00    +0.133 C 
ENDROOT
BRANCH   1   2
ATOM      2  N   LEU A   1      12.075  31.157  -5.833  0.00  0.00    -0.239 NA
ATOM      3  H   LEU A   1      11.547  32.051  -5.778  0.00  0.00    +0.142 HD
ENDBRANCH   1   2
BRANCH   1   4
ATOM      4  C   LEU A   1      12.277  30.455  -8.167  0.00  0.00    +0.224 C 
ATOM      5  O   LEU A   1      12.324  31.633  -8.549  0.00  0.00    -0.287 OA
ENDBRANCH   1   4
BRANCH   1   6
ATOM      6  CB  LEU A   1      10.133  30.234  -6.917  0.00  0.00    +0.025 C 
BRANCH   6   7
ATOM      7  CG  LEU A   1       9.392  29.922  -5.665  0.00  0.00    +0.002 C 
ATOM      8  CD2 LEU A   1       9.396  28.420  -5.447  0.00  0.00    +0.000 C 
ATOM      9  CD1 LEU A   1       8.000  30.451  -5.779  0.00  0.00    +0.000 C 
ENDBRANCH   6   7
ENDBRANCH   1   6
TORSDOF 4
REMARK  Name = ../refined-set-2016/1hxw/1hxw_pocket.pdb
REMARK  227 active torsions:
REMARK  status: ('A' for Active; 'I' for Inactive)
REMARK    1  A    between atoms: _1  and  _3
REMARK    2  A    between atoms: _3  and  _4
REMARK    3  A    between atoms: _3  and  _6
REMARK    4  A    between atoms: _6  and  _7
REMARK    5  A    between atoms: _7  and  _8
REMARK    6  A    between atoms: _8  and  _9
REMARK    7  A    between atoms: _18  and  _20
REMARK    8  A    between atoms: _20  and  _21
REMARK    9  A    between atoms: _20  and  _23
REMARK   10  A    between atoms: _23  and  _24
REMARK   11  A    between atoms: _27  and  _29
REMARK   12  A    between atoms: _29  and  _30
REMARK   13  A    between atoms: _29  and  _32
REMARK   14  A    between atoms: _32  and  _33
REMARK   15  A    between atoms: _36  and  _38
REMARK   16  A    between atoms: _38  and  _39
REMARK   17  A    between atoms: _38  and  _41
REMARK   18  A    between atoms: _41  and  _42
REMARK   19  A    between atoms: _45  and  _47
REMARK   20  A    between atoms: _47  and  _48
REMARK   21  A    between atoms: _47  and  _50
REMARK   22  A    between atoms: _50  and  _51
REMARK   23  A    between atoms: _54  and  _56
REMARK   24  A    between atoms: _56  and  _57
REMARK   25  A    between atoms: _59  and  _61
REMARK   26  A    between atoms: _61  and  _62
REMARK   27  A    between atoms: _65  and  _67
REMARK   28  A    between atoms: _67  and  _68
REMARK   29  A    between atoms: _67  and  _70
REMARK   30  A    between atoms: _70  and  _71
REMARK   31  A    between atoms: _74  and  _76
REMARK   32  A    between atoms: _76  and  _77
REMARK   33  A    between atoms: _76  and  _79
REMARK   34  A    between atoms: _79  and  _80
REMARK   35  A    between atoms: _83  and  _85
REMARK   36  A    between atoms: _85  and  _86
REMARK   37  A    between atoms: _85  and  _88
REMARK   38  A    between atoms: _88  and  _89
REMARK   39  A    between atoms: _92  and  _94
REMARK   40  A    between atoms: _94  and  _95
REMARK   41  A    between atoms: _94  and  _97
REMARK   42  A    between atoms: _100  and  _102
REMARK   43  A    between atoms: _102  and  _103
REMARK   44  A    between atoms: _102  and  _105
REMARK   45  A    between atoms: _105  and  _106
REMARK   46  A    between atoms: _106  and  _107
REMARK   47  A    between atoms: _107  and  _108
REMARK   48  A    between atoms: _108  and  _109
REMARK   49  A    between atoms: _113  and  _115
REMARK   50  A    between atoms: _115  and  _116
REMARK   51  A    between atoms: _115  and  _118
REMARK   52  A    between atoms: _118  and  _119
REMARK   53  A    between atoms: _119  and  _120
REMARK   54  A    between atoms: _122  and  _124
REMARK   55  A    between atoms: _124  and  _125
REMARK   56  A    between atoms: _124  and  _127
REMARK   57  A    between atoms: _127  and  _128
REMARK   58  A    between atoms: _131  and  _133
REMARK   59  A    between atoms: _133  and  _134
REMARK   60  A    between atoms: _136  and  _138
REMARK   61  A    between atoms: _138  and  _139
REMARK   62  A    between atoms: _141  and  _143
REMARK   63  A    between atoms: _143  and  _144
REMARK   64  A    between atoms: _143  and  _146
REMARK   65  A    between atoms: _146  and  _147
REMARK   66  A    between atoms: _150  and  _152
REMARK   67  A    between atoms: _152  and  _153
REMARK   68  A    between atoms: _155  and  _157
REMARK   69  A    between atoms: _157  and  _158
REMARK   70  A    between atoms: _160  and  _162
REMARK   71  A    between atoms: _162  and  _163
REMARK   72  A    between atoms: _162  and  _165
REMARK   73  A    between atoms: _165  and  _166
REMARK   74  A    between atoms: _172  and  _174
REMARK   75  A    between atoms: _174  and  _175
REMARK   76  A    between atoms: _174  and  _177
REMARK   77  A    between atoms: _177  and  _178
REMARK   78  A    between atoms: _181  and  _183
REMARK   79  A    between atoms: _183  and  _184
REMARK   80  A    between atoms: _183  and  _186
REMARK   81  A    between atoms: _186  and  _187
REMARK   82  A    between atoms: _191  and  _192
REMARK   83  A    between atoms: _197  and  _199
REMARK   84  A    between atoms: _199  and  _200
REMARK   85  A    between atoms: _199  and  _202
REMARK   86  A    between atoms: _202  and  _203
REMARK   87  A    between atoms: _207  and  _208
REMARK   88  A    between atoms: _213  and  _215
REMARK   89  A    between atoms: _215  and  _216
REMARK   90  A    between atoms: _215  and  _218
REMARK   91  A    between atoms: _221  and  _223
REMARK   92  A    between atoms: _223  and  _224
REMARK   93  A    between atoms: _223  and  _226
REMARK   94  A    between atoms: _226  and  _227
REMARK   95  A    between atoms: _232  and  _234
REMARK   96  A    between atoms: _234  and  _235
REMARK   97  A    between atoms: _234  and  _237
REMARK   98  A    between atoms: _237  and  _238
REMARK   99  A    between atoms: _241  and  _243
REMARK  100  A    between atoms: _243  and  _244
REMARK  101  A    between atoms: _246  and  _248
REMARK  102  A    between atoms: _248  and  _249
REMARK  103  A    between atoms: _248  and  _251
REMARK  104  A    between atoms: _251  and  _252
REMARK  105  A    between atoms: _252  and  _253
REMARK  106  A    between atoms: _253  and  _254
REMARK  107  A    between atoms: _263  and  _265
REMARK  108  A    between atoms: _265  and  _266
REMARK  109  A    between atoms: _265  and  _268
REMARK  110  A    between atoms: _268  and  _269
REMARK  111  A    between atoms: _269  and  _270
REMARK  112  A    between atoms: _270  and  _271
REMARK  113  A    between atoms: _280  and  _282
REMARK  114  A    between atoms: _282  and  _283
REMARK  115  A    between atoms: _282  and  _285
REMARK  116  A    between atoms: _285  and  _286
REMARK  117  A    between atoms: _289  and  _291
REMARK  118  A    between atoms: _291  and  _292
REMARK  119  A    between atoms: _291  and  _294
REMARK  120  A    between atoms: _294  and  _295
REMARK  121  A    between atoms: _298  and  _300
REMARK  122  A    between atoms: _300  and  _301
REMARK  123  A    between atoms: _300  and  _303
REMARK  124  A    between atoms: _303  and  _304
REMARK  125  A    between atoms: _307  and  _309
REMARK  126  A    between atoms: _309  and  _310
REMARK  127  A    between atoms: _309  and  _312
REMARK  128  A    between atoms: _312  and  _313
REMARK  129  A    between atoms: _316  and  _318
REMARK  130  A    between atoms: _318  and  _319
REMARK  131  A    between atoms: _318  and  _321
REMARK  132  A    between atoms: _321  and  _322
REMARK  133  A    between atoms: _325  and  _327
REMARK  134  A    between atoms: _327  and  _328
REMARK  135  A    between atoms: _330  and  _332
REMARK  136  A    between atoms: _332  and  _333
REMARK  137  A    between atoms: _336  and  _338
REMARK  138  A    between atoms: _338  and  _339
REMARK  139  A    between atoms: _338  and  _341
REMARK  140  A    between atoms: _341  and  _342
REMARK  141  A    between atoms: _345  and  _347
REMARK  142  A    between atoms: _347  and  _348
REMARK  143  A    between atoms: _347  and  _350
REMARK  144  A    between atoms: _350  and  _351
REMARK  145  A    between atoms: _354  and  _356
REMARK  146  A    between atoms: _356  and  _357
REMARK  147  A    between atoms: _356  and  _359
REMARK  148  A    between atoms: _359  and  _360
REMARK  149  A    between atoms: _363  and  _365
REMARK  150  A    between atoms: _365  and  _366
REMARK  151  A    between atoms: _365  and  _368
REMARK  152  A    between atoms: _371  and  _373
REMARK  153  A    between atoms: _373  and  _374
REMARK  154  A    between atoms: _373  and  _376
REMARK  155  A    between atoms: _376  and  _377
REMARK  156  A    between atoms: _380  and  _382
REMARK  157  A    between atoms: _382  and  _383
REMARK  158  A    between atoms: _382  and  _385
REMARK  159  A    between atoms: _385  and  _386
REMARK  160  A    between atoms: _386  and  _387
REMARK  161  A    between atoms: _387  and  _388
REMARK  162  A    between atoms: _388  and  _389
REMARK  163  A    between atoms: _393  and  _395
REMARK  164  A    between atoms: _395  and  _396
REMARK  165  A    between atoms: _395  and  _398
REMARK  166  A    between atoms: _398  and  _399
REMARK  167  A    between atoms: _399  and  _400
REMARK  168  A    between atoms: _402  and  _404
REMARK  169  A    between atoms: _404  and  _405
REMARK  170  A    between atoms: _404  and  _407
REMARK  171  A    between atoms: _407  and  _408
REMARK  172  A    between atoms: _411  and  _413
REMARK  173  A    between atoms: _413  and  _414
REMARK  174  A    between atoms: _416  and  _418
REMARK  175  A    between atoms: _418  and  _419
REMARK  176  A    between atoms: _421  and  _423
REMARK  177  A    between atoms: _423  and  _424
REMARK  178  A    between atoms: _423  and  _426
REMARK  179  A    between atoms: _426  and  _427
REMARK  180  A    between atoms: _430  and  _432
REMARK  181  A    between atoms: _432  and  _433
REMARK  182  A    between atoms: _435  and  _437
REMARK  183  A    between atoms: _437  and  _438
REMARK  184  A    between atoms: _440  and  _442
REMARK  185  A    between atoms: _442  and  _443
REMARK  186  A    between atoms: _442  and  _445
REMARK  187  A    between atoms: _445  and  _446
REMARK  188  A    between atoms: _449  and  _451
REMARK  189  A    between atoms: _451  and  _452
REMARK  190  A    between atoms: _451  and  _454
REMARK  191  A    between atoms: _457  and  _459
REMARK  192  A    between atoms: _459  and  _460
REMARK  193  A    between atoms: _459  and  _462
REMARK  194  A    between atoms: _462  and  _463
REMARK  195  A    between atoms: _467  and  _468
REMARK  196  A    between atoms: _473  and  _475
REMARK  197  A    between atoms: _475  and  _476
REMARK  198  A    between atoms: _475  and  _478
REMARK  199  A    between atoms: _478  and  _479
REMARK  200  A    between atoms: _483  and  _484
REMARK  201  A    between atoms: _489  and  _491
REMARK  202  A    between atoms: _491  and  _492
REMARK  203  A    between atoms: _491  and  _494
REMARK  204  A    between atoms: _497  and  _499
REMARK  205  A    between atoms: _499  and  _500
REMARK  206  A    between atoms: _499  and  _502
REMARK  207  A    between atoms: _502  and  _503
REMARK  208  A    between atoms: _508  and  _510
REMARK  209  A    between atoms: _510  and  _511
REMARK  210  A    between atoms: _510  and  _513
REMARK  211  A    between atoms: _513  and  _514
REMARK  212  A    between atoms: _517  and  _519
REMARK  213  A    between atoms: _519  and  _520
REMARK  214  A    between atoms: _519  and  _522
REMARK  215  A    between atoms: _522  and  _523
REMARK  216  A    between atoms: _526  and  _528
REMARK  217  A    between atoms: _528  and  _529
REMARK  218  A    between atoms: _531  and  _533
REMARK  219  A    between atoms: _533  and  _534
REMARK  220  A    between atoms: _533  and  _536
REMARK  221  A    between atoms: _536  and  _537
REMARK  222  A    between atoms: _537  and  _538
REMARK  223  A    between atoms: _538  and  _539
REMARK  224  A    between atoms: _548  and  _550
REMARK  225  A    between atoms: _550  and  _551
REMARK  226  A    between atoms: _550  and  _553
REMARK  227  A    between atoms: _553  and  _554
REMARK                            x       y       z     vdW  Elec       q    Type
REMARK                         _______ _______ _______ _____ _____    ______ ____
ROOT
ATOM      1  C   ALA A   6      19.798  21.139   2.007  0.00  0.00    +0.241 C 
ATOM      2  N   ASP A   7      20.298  20.091   2.661  0.00  0.00    -0.297 N 
ATOM      3  H   ASP A   7      19.748  19.640   3.420  0.00  0.00    +0.150 HD
ATOM      4  O   ALA A   6      20.533  21.667   1.146  0.00  0.00    -0.273 OA
ENDROOT
BRANCH   1   5
ATOM      5  CA  ALA A   6      18.397  21.646   2.359  0.00  0.00    +0.149 C 
ATOM      6  CB  ALA A   6      17.490  21.572   1.204  0.00  0.00    +0.031 C 
BRANCH   5   9
ATOM      7  C   GLY A   5      18.372  23.418   3.996  0.00  0.00    +0.243 C 
ATOM      8  O   GLY A   5      18.106  22.583   4.849  0.00  0.00    -0.273 OA
ATOM      9  N   ALA A   6      18.469  23.027   2.732  0.00  0.00    -0.297 N 
ATOM     10  H   ALA A   6      18.601  23.744   1.990  0.00  0.00    +0.150 HD
BRANCH   7  11
ATOM     11  CA  GLY A   5      18.608  24.869   4.477  0.00  0.00    +0.176 C 
BRANCH  11  14
ATOM     12  C   THR A   4      20.064  25.939   2.911  0.00  0.00    +0.243 C 
ATOM     13  O   THR A   4      21.011  25.390   3.427  0.00  0.00    -0.273 OA
ATOM     14  N   GLY A   5      18.872  25.724   3.380  0.00  0.00    -0.295 N 
ATOM     15  H   GLY A   5      18.070  26.205   2.926  0.00  0.00    +0.150 HD
BRANCH  12  16
ATOM     16  CA  THR A   4      20.271  26.828   1.675  0.00  0.00    +0.176 C 
BRANCH  16  18
ATOM     17  C   ASP A   3      18.588  26.024   0.194  0.00  0.00    +0.241 C 
ATOM     18  N   THR A   4      19.030  27.001   0.949  0.00  0.00    -0.295 N 
ATOM     19  H   THR A   4      18.495  27.890   1.025  0.00  0.00    +0.150 HD
ATOM     20  O   ASP A   3      19.105  24.924   0.116  0.00  0.00    -0.273 OA
BRANCH  17  21
ATOM     21  CA  ASP A   3      17.304  26.329  -0.480  0.00  0.00    +0.160 C 
BRANCH  21  24
ATOM     22  C   LEU A   2      16.781  27.659  -2.380  0.00  0.00    +0.241 C 
ATOM     23  O   LEU A   2      16.292  28.519  -1.651  0.00  0.00    -0.273 OA
ATOM     24  N   ASP A   3      17.371  26.552  -1.888  0.00  0.00    -0.297 N 
ATOM     25  H   ASP A   3      17.860  25.881  -2.515  0.00  0.00    +0.150 HD
BRANCH  22  26
ATOM     26  CA  LEU A   2      16.673  27.723  -3.901  0.00  0.00    +0.149 C 
BRANCH  26  29
ATOM     27  C   LEU A   1      14.486  26.642  -4.269  0.00  0.00    +0.238 C 
ATOM     28  O   LEU A   1      15.006  25.536  -4.044  0.00  0.00    -0.274 OA
ATOM     29  N   LEU A   2      15.261  27.746  -4.258  0.00  0.00    -0.297 N 
ATOM     30  H   LEU A   2      14.830  28.657  -4.517  0.00  0.00    +0.150 HD
BRANCH  27  31
ATOM     31  CA  LEU A   1      12.984  26.641  -4.480  0.00  0.00    +0.145 C 
BRANCH  31  32
ATOM     32  N   LEU A   1      12.577  25.709  -5.505  0.00  0.00    -0.238 NA
ATOM     33  H   LEU A   1      12.307  24.753  -5.199  0.00  0.00    +0.142 HD
ENDBRANCH  31  32
BRANCH  31  34
ATOM     34  CB  LEU A   1      12.231  26.205  -3.231  0.00  0.00    +0.026 C 
BRANCH  34  35
ATOM     35  CG  LEU A   1      12.159  26.961  -1.935  0.00  0.00    +0.002 C 
ATOM     36  CD2 LEU A   1      11.391  26.194  -0.853  0.00  0.00    +0.000 C 
ATOM     37  CD1 LEU A   1      11.462  28.302  -2.298  0.00  0.00    +0.000 C 
ENDBRANCH  34  35
ENDBRANCH  31  34
ENDBRANCH  27  31
ENDBRANCH  26  29
BRANCH  26  38
ATOM     38  CB  LEU A   2      17.358  28.957  -4.409  0.00  0.00    +0.029 C 
BRANCH  38  39
ATOM     39  CG  LEU A   2      17.399  29.182  -5.922  0.00  0.00    +0.002 C 
ATOM     40  CD2 LEU A   2      18.481  30.234  -6.172  0.00  0.00    +0.000 C 
ATOM     41  CD1 LEU A   2      17.726  27.904  -6.688  0.00  0.00    +0.000 C 
ENDBRANCH  38  39
ENDBRANCH  26  38
ENDBRANCH  22  26
ENDBRANCH  21  24
BRANCH  21  42
ATOM     42  CB  ASP A   3      16.268  25.225  -0.273  0.00  0.00    +0.143 C 
BRANCH  42  43
ATOM     43  CG  ASP A   3      15.868  24.996   1.165  0.00  0.00    +0.367 C 
ATOM     44  OD2 ASP A   3      16.196  25.780   2.052  0.00  0.00    -0.246 OA
ATOM     45  OD1 ASP A   3      15.183  24.014   1.349  0.00  0.00    -0.246 OA
ENDBRANCH  42  43
ENDBRANCH  21  42
ENDBRANCH  17  21
ENDBRANCH  16  18
BRANCH  16  46
ATOM     46  CB  THR A   4      20.844  28.223   2.058  0.00  0.00    +0.137 C 
ATOM     47  CG2 THR A   4      21.212  29.078   0.819  0.00  0.00    +0.034 C 
BRANCH  46  48
ATOM     48  OG1 THR A   4      19.849  28.856   2.851  0.00  0.00    -0.382 OA
ATOM     49  HG1 THR A   4      19.674  28.309   3.657  0.00  0.00    +0.210 HD
ENDBRANCH  46  48
ENDBRANCH  16  46
ENDBRANCH  12  16
ENDBRANCH  11  14
ENDBRANCH   7  11
ENDBRANCH   5   9
ENDBRANCH   1   5
BRANCH   2  50
ATOM     50  CA  ASP A   7      21.637  19.570   2.306  0.00  0.00    +0.160 C 
BRANCH  50  51
ATOM     51  C   ASP A   7      21.627  18.983   0.912  0.00  0.00    +0.241 C 
ATOM     52  N   ASP A   8      20.523  18.389   0.459  0.00  0.00    -0.297 N 
ATOM     53  H   ASP A   8      19.672  18.369   1.056  0.00  0.00    +0.150 HD
ATOM     54  O   ASP A   7      22.601  19.138   0.186  0.00  0.00    -0.273 OA
BRANCH  52  55
ATOM     55  CA  ASP A   8      20.489  17.773  -0.846  0.00  0.00    +0.160 C 
BRANCH  55  56
ATOM     56  C   ASP A   8      19.376  18.295  -1.720  0.00  0.00    +0.241 C 
ATOM     57  O   ASP A   8      18.526  18.996  -1.236  0.00  0.00    -0.273 OA
ATOM     58  N   THR A   9      19.323  17.932  -2.985  0.00  0.00    -0.295 N 
ATOM     59  H   THR A   9      20.037  17.258  -3.328  0.00  0.00    +0.150 HD
BRANCH  58  60
ATOM     60  CA  THR A   9      18.348  18.404  -3.915  0.00  0.00    +0.176 C 
BRANCH  60  61
ATOM     61  C   THR A   9      17.243  17.387  -3.971  0.00  0.00    +0.243 C 
ATOM     62  N   VAL A  10      15.967  17.811  -3.819  0.00  0.00    -0.297 N 
ATOM     63  H   VAL A  10      15.770  18.828  -3.729  0.00  0.00    +0.150 HD
ATOM     64  O   THR A   9      17.586  16.229  -4.190  0.00  0.00    -0.273 OA
BRANCH  62  65
ATOM     65  CA  VAL A  10      14.875  16.865  -3.780  0.00  0.00    +0.149 C 
BRANCH  65  66
ATOM     66  C   VAL A  10      13.840  17.210  -4.780  0.00  0.00    +0.241 C 
ATOM     67  O   VAL A  10      13.295  18.302  -4.687  0.00  0.00    -0.273 OA
ATOM     68  N   LEU A  11      13.443  16.355  -5.674  0.00  0.00    -0.298 N 
ATOM     69  H   LEU A  11      13.861  15.403  -5.680  0.00  0.00    +0.150 HD
BRANCH  68  70
ATOM     70  CA  LEU A  11      12.440  16.685  -6.659  0.00  0.00    +0.137 C 
BRANCH  70  71
ATOM     71  C   LEU A  11      11.212  15.834  -6.410  0.00  0.00    +0.227 C 
ATOM     72  O   LEU A  11      11.300  14.729  -5.863  0.00  0.00    -0.286 OA
ENDBRANCH  70  71
BRANCH  70  73
ATOM     73  CB  LEU A  11      13.004  16.393  -8.024  0.00  0.00    +0.028 C 
BRANCH  73  74
ATOM     74  CG  LEU A  11      14.311  17.049  -8.413  0.00  0.00    +0.002 C 
ATOM     75  CD2 LEU A  11      14.146  18.558  -8.487  0.00  0.00    +0.000 C 
ATOM     76  CD1 LEU A  11      14.676  16.641  -9.797  0.00  0.00    +0.000 C 
ENDBRANCH  73  74
ENDBRANCH  70  73
ENDBRANCH  68  70
ENDBRANCH  65  66
BRANCH  65  77
ATOM     77  CB  VAL A  10      14.153  16.802  -2.442  0.00  0.00    +0.027 C 
ATOM     78  CG2 VAL A  10      15.051  17.029  -1.276  0.00  0.00    +0.002 C 
ATOM     79  CG1 VAL A  10      13.523  15.392  -2.360  0.00  0.00    +0.002 C 
ENDBRANCH  65  77
ENDBRANCH  62  65
ENDBRANCH  60  61
BRANCH  60  80
ATOM     80  CB  THR A   9      19.043  18.552  -5.229  0.00  0.00    +0.137 C 
ATOM     81  CG2 THR A   9      18.103  18.728  -6.382  0.00  0.00    +0.034 C 
BRANCH  80  82
ATOM     82  OG1 THR A   9      19.815  19.742  -5.113  0.00  0.00    -0.382 OA
ATOM     83  HG1 THR A   9      20.461  19.644  -4.369  0.00  0.00    +0.210 HD
ENDBRANCH  80  82
ENDBRANCH  60  80
ENDBRANCH  58  60
ENDBRANCH  55  56
BRANCH  55  84
ATOM     84  CB  ASP A   8      20.300  16.275  -0.731  0.00  0.00    +0.143 C 
BRANCH  84  85
ATOM     85  CG  ASP A   8      21.417  15.663   0.086  0.00  0.00    +0.367 C 
ATOM     86  OD2 ASP A   8      21.079  15.072   1.106  0.00  0.00    -0.246 OA
ATOM     87  OD1 ASP A   8      22.592  15.822  -0.269  0.00  0.00    -0.246 OA
ENDBRANCH  84  85
ENDBRANCH  55  84
ENDBRANCH  52  55
ENDBRANCH  50  51
BRANCH  50  88
ATOM     88  CB  ASP A   7      22.091  18.468   3.258  0.00  0.00    +0.143 C 
BRANCH  88  89
ATOM     89  CG  ASP A   7      21.952  18.856   4.737  0.00  0.00    +0.367 C 
ATOM     90  OD2 ASP A   7      21.235  18.175   5.503  0.00  0.00    -0.246 OA
ATOM     91  OD1 ASP A   7      22.532  19.837   5.175  0.00  0.00    -0.246 OA
ENDBRANCH  88  89
ENDBRANCH  50  88
ENDBRANCH   2  50
TORSDOF 39
REMARK  Name = ../refined-set-2016/1hxw/1hxw_pocket.pdb
REMARK  227 active torsions:
REMARK  status: ('A' for Active; 'I' for Inactive)
REMARK    1  A    between atoms: _1  and  _3
REMARK    2  A    between atoms: _3  and  _4
REMARK    3  A    between atoms: _3  and  _6
REMARK    4  A    between atoms: _6  and  _7
REMARK    5  A    between atoms: _7  and  _8
REMARK    6  A    between atoms: _8  and  _9
REMARK    7  A    between atoms: _18  and  _20
REMARK    8  A    between atoms: _20  and  _21
REMARK    9  A    between atoms: _20  and  _23
REMARK   10  A    between atoms: _23  and  _24
REMARK   11  A    between atoms: _27  and  _29
REMARK   12  A    between atoms: _29  and  _30
REMARK   13  A    between atoms: _29  and  _32
REMARK   14  A    between atoms: _32  and  _33
REMARK   15  A    between atoms: _36  and  _38
REMARK   16  A    between atoms: _38  and  _39
REMARK   17  A    between atoms: _38  and  _41
REMARK   18  A    between atoms: _41  and  _42
REMARK   19  A    between atoms: _45  and  _47
REMARK   20  A    between atoms: _47  and  _48
REMARK   21  A    between atoms: _47  and  _50
REMARK   22  A    between atoms: _50  and  _51
REMARK   23  A    between atoms: _54  and  _56
REMARK   24  A    between atoms: _56  and  _57
REMARK   25  A    between atoms: _59  and  _61
REMARK   26  A    between atoms: _61  and  _62
REMARK   27  A    between atoms: _65  and  _67
REMARK   28  A    between atoms: _67  and  _68
REMARK   29  A    between atoms: _67  and  _70
REMARK   30  A    between atoms: _70  and  _71
REMARK   31  A    between atoms: _74  and  _76
REMARK   32  A    between atoms: _76  and  _77
REMARK   33  A    between atoms: _76  and  _79
REMARK   34  A    between atoms: _79  and  _80
REMARK   35  A    between atoms: _83  and  _85
REMARK   36  A    between atoms: _85  and  _86
REMARK   37  A    between atoms: _85  and  _88
REMARK   38  A    between atoms: _88  and  _89
REMARK   39  A    between atoms: _92  and  _94
REMARK   40  A    between atoms: _94  and  _95
REMARK   41  A    between atoms: _94  and  _97
REMARK   42  A    between atoms: _100  and  _102
REMARK   43  A    between atoms: _102  and  _103
REMARK   44  A    between atoms: _102  and  _105
REMARK   45  A    between atoms: _105  and  _106
REMARK   46  A    between atoms: _106  and  _107
REMARK   47  A    between atoms: _107  and  _108
REMARK   48  A    between atoms: _108  and  _109
REMARK   49  A    between atoms: _113  and  _115
REMARK   50  A    between atoms: _115  and  _116
REMARK   51  A    between atoms: _115  and  _118
REMARK   52  A    between atoms: _118  and  _119
REMARK   53  A    between atoms: _119  and  _120
REMARK   54  A    between atoms: _122  and  _124
REMARK   55  A    between atoms: _124  and  _125
REMARK   56  A    between atoms: _124  and  _127
REMARK   57  A    between atoms: _127  and  _128
REMARK   58  A    between atoms: _131  and  _133
REMARK   59  A    between atoms: _133  and  _134
REMARK   60  A    between atoms: _136  and  _138
REMARK   61  A    between atoms: _138  and  _139
REMARK   62  A    between atoms: _141  and  _143
REMARK   63  A    between atoms: _143  and  _144
REMARK   64  A    between atoms: _143  and  _146
REMARK   65  A    between atoms: _146  and  _147
REMARK   66  A    between atoms: _150  and  _152
REMARK   67  A    between atoms: _152  and  _153
REMARK   68  A    between atoms: _155  and  _157
REMARK   69  A    between atoms: _157  and  _158
REMARK   70  A    between atoms: _160  and  _162
REMARK   71  A    between atoms: _162  and  _163
REMARK   72  A    between atoms: _162  and  _165
REMARK   73  A    between atoms: _165  and  _166
REMARK   74  A    between atoms: _172  and  _174
REMARK   75  A    between atoms: _174  and  _175
REMARK   76  A    between atoms: _174  and  _177
REMARK   77  A    between atoms: _177  and  _178
REMARK   78  A    between atoms: _181  and  _183
REMARK   79  A    between atoms: _183  and  _184
REMARK   80  A    between atoms: _183  and  _186
REMARK   81  A    between atoms: _186  and  _187
REMARK   82  A    between atoms: _191  and  _192
REMARK   83  A    between atoms: _197  and  _199
REMARK   84  A    between atoms: _199  and  _200
REMARK   85  A    between atoms: _199  and  _202
REMARK   86  A    between atoms: _202  and  _203
REMARK   87  A    between atoms: _207  and  _208
REMARK   88  A    between atoms: _213  and  _215
REMARK   89  A    between atoms: _215  and  _216
REMARK   90  A    between atoms: _215  and  _218
REMARK   91  A    between atoms: _221  and  _223
REMARK   92  A    between atoms: _223  and  _224
REMARK   93  A    between atoms: _223  and  _226
REMARK   94  A    between atoms: _226  and  _227
REMARK   95  A    between atoms: _232  and  _234
REMARK   96  A    between atoms: _234  and  _235
REMARK   97  A    between atoms: _234  and  _237
REMARK   98  A    between atoms: _237  and  _238
REMARK   99  A    between atoms: _241  and  _243
REMARK  100  A    between atoms: _243  and  _244
REMARK  101  A    between atoms: _246  and  _248
REMARK  102  A    between atoms: _248  and  _249
REMARK  103  A    between atoms: _248  and  _251
REMARK  104  A    between atoms: _251  and  _252
REMARK  105  A    between atoms: _252  and  _253
REMARK  106  A    between atoms: _253  and  _254
REMARK  107  A    between atoms: _263  and  _265
REMARK  108  A    between atoms: _265  and  _266
REMARK  109  A    between atoms: _265  and  _268
REMARK  110  A    between atoms: _268  and  _269
REMARK  111  A    between atoms: _269  and  _270
REMARK  112  A    between atoms: _270  and  _271
REMARK  113  A    between atoms: _280  and  _282
REMARK  114  A    between atoms: _282  and  _283
REMARK  115  A    between atoms: _282  and  _285
REMARK  116  A    between atoms: _285  and  _286
REMARK  117  A    between atoms: _289  and  _291
REMARK  118  A    between atoms: _291  and  _292
REMARK  119  A    between atoms: _291  and  _294
REMARK  120  A    between atoms: _294  and  _295
REMARK  121  A    between atoms: _298  and  _300
REMARK  122  A    between atoms: _300  and  _301
REMARK  123  A    between atoms: _300  and  _303
REMARK  124  A    between atoms: _303  and  _304
REMARK  125  A    between atoms: _307  and  _309
REMARK  126  A    between atoms: _309  and  _310
REMARK  127  A    between atoms: _309  and  _312
REMARK  128  A    between atoms: _312  and  _313
REMARK  129  A    between atoms: _316  and  _318
REMARK  130  A    between atoms: _318  and  _319
REMARK  131  A    between atoms: _318  and  _321
REMARK  132  A    between atoms: _321  and  _322
REMARK  133  A    between atoms: _325  and  _327
REMARK  134  A    between atoms: _327  and  _328
REMARK  135  A    between atoms: _330  and  _332
REMARK  136  A    between atoms: _332  and  _333
REMARK  137  A    between atoms: _336  and  _338
REMARK  138  A    between atoms: _338  and  _339
REMARK  139  A    between atoms: _338  and  _341
REMARK  140  A    between atoms: _341  and  _342
REMARK  141  A    between atoms: _345  and  _347
REMARK  142  A    between atoms: _347  and  _348
REMARK  143  A    between atoms: _347  and  _350
REMARK  144  A    between atoms: _350  and  _351
REMARK  145  A    between atoms: _354  and  _356
REMARK  146  A    between atoms: _356  and  _357
REMARK  147  A    between atoms: _356  and  _359
REMARK  148  A    between atoms: _359  and  _360
REMARK  149  A    between atoms: _363  and  _365
REMARK  150  A    between atoms: _365  and  _366
REMARK  151  A    between atoms: _365  and  _368
REMARK  152  A    between atoms: _371  and  _373
REMARK  153  A    between atoms: _373  and  _374
REMARK  154  A    between atoms: _373  and  _376
REMARK  155  A    between atoms: _376  and  _377
REMARK  156  A    between atoms: _380  and  _382
REMARK  157  A    between atoms: _382  and  _383
REMARK  158  A    between atoms: _382  and  _385
REMARK  159  A    between atoms: _385  and  _386
REMARK  160  A    between atoms: _386  and  _387
REMARK  161  A    between atoms: _387  and  _388
REMARK  162  A    between atoms: _388  and  _389
REMARK  163  A    between atoms: _393  and  _395
REMARK  164  A    between atoms: _395  and  _396
REMARK  165  A    between atoms: _395  and  _398
REMARK  166  A    between atoms: _398  and  _399
REMARK  167  A    between atoms: _399  and  _400
REMARK  168  A    between atoms: _402  and  _404
REMARK  169  A    between atoms: _404  and  _405
REMARK  170  A    between atoms: _404  and  _407
REMARK  171  A    between atoms: _407  and  _408
REMARK  172  A    between atoms: _411  and  _413
REMARK  173  A    between atoms: _413  and  _414
REMARK  174  A    between atoms: _416  and  _418
REMARK  175  A    between atoms: _418  and  _419
REMARK  176  A    between atoms: _421  and  _423
REMARK  177  A    between atoms: _423  and  _424
REMARK  178  A    between atoms: _423  and  _426
REMARK  179  A    between atoms: _426  and  _427
REMARK  180  A    between atoms: _430  and  _432
REMARK  181  A    between atoms: _432  and  _433
REMARK  182  A    between atoms: _435  and  _437
REMARK  183  A    between atoms: _437  and  _438
REMARK  184  A    between atoms: _440  and  _442
REMARK  185  A    between atoms: _442  and  _443
REMARK  186  A    between atoms: _442  and  _445
REMARK  187  A    between atoms: _445  and  _446
REMARK  188  A    between atoms: _449  and  _451
REMARK  189  A    between atoms: _451  and  _452
REMARK  190  A    between atoms: _451  and  _454
REMARK  191  A    between atoms: _457  and  _459
REMARK  192  A    between atoms: _459  and  _460
REMARK  193  A    between atoms: _459  and  _462
REMARK  194  A    between atoms: _462  and  _463
REMARK  195  A    between atoms: _467  and  _468
REMARK  196  A    between atoms: _473  and  _475
REMARK  197  A    between atoms: _475  and  _476
REMARK  198  A    between atoms: _475  and  _478
REMARK  199  A    between atoms: _478  and  _479
REMARK  200  A    between atoms: _483  and  _484
REMARK  201  A    between atoms: _489  and  _491
REMARK  202  A    between atoms: _491  and  _492
REMARK  203  A    between atoms: _491  and  _494
REMARK  204  A    between atoms: _497  and  _499
REMARK  205  A    between atoms: _499  and  _500
REMARK  206  A    between atoms: _499  and  _502
REMARK  207  A    between atoms: _502  and  _503
REMARK  208  A    between atoms: _508  and  _510
REMARK  209  A    between atoms: _510  and  _511
REMARK  210  A    between atoms: _510  and  _513
REMARK  211  A    between atoms: _513  and  _514
REMARK  212  A    between atoms: _517  and  _519
REMARK  213  A    between atoms: _519  and  _520
REMARK  214  A    between atoms: _519  and  _522
REMARK  215  A    between atoms: _522  and  _523
REMARK  216  A    between atoms: _526  and  _528
REMARK  217  A    between atoms: _528  and  _529
REMARK  218  A    between atoms: _531  and  _533
REMARK  219  A    between atoms: _533  and  _534
REMARK  220  A    between atoms: _533  and  _536
REMARK  221  A    between atoms: _536  and  _537
REMARK  222  A    between atoms: _537  and  _538
REMARK  223  A    between atoms: _538  and  _539
REMARK  224  A    between atoms: _548  and  _550
REMARK  225  A    between atoms: _550  and  _551
REMARK  226  A    between atoms: _550  and  _553
REMARK  227  A    between atoms: _553  and  _554
REMARK                            x       y       z     vdW  Elec       q    Type
REMARK                         _______ _______ _______ _____ _____    ______ ____
ROOT
ATOM      1  C   ILE A   3      14.758  13.228   5.662  0.00  0.00    +0.241 C 
ATOM      2  N   GLY A   4      15.218  14.090   6.539  0.00  0.00    -0.295 N 
ATOM      3  H   GLY A   4      16.215  14.384   6.516  0.00  0.00    +0.150 HD
ATOM      4  O   ILE A   3      13.583  12.892   5.660  0.00  0.00    -0.273 OA
ENDROOT
BRANCH   2   5
ATOM      5  CA  GLY A   4      14.318  14.626   7.538  0.00  0.00    +0.176 C 
BRANCH   5   6
ATOM      6  C   GLY A   4      14.092  16.087   7.300  0.00  0.00    +0.243 C 
ATOM      7  N   GLY A   5      12.871  16.475   7.523  0.00  0.00    -0.295 N 
ATOM      8  H   GLY A   5      12.184  15.760   7.837  0.00  0.00    +0.150 HD
ATOM      9  O   GLY A   4      15.000  16.769   6.888  0.00  0.00    -0.273 OA
BRANCH   7  10
ATOM     10  CA  GLY A   5      12.405  17.832   7.364  0.00  0.00    +0.176 C 
BRANCH  10  11
ATOM     11  C   GLY A   5      11.764  18.200   8.651  0.00  0.00    +0.243 C 
ATOM     12  O   GLY A   5      11.899  17.530   9.659  0.00  0.00    -0.273 OA
ATOM     13  N   ILE A   6      10.948  19.205   8.574  0.00  0.00    -0.297 N 
ATOM     14  H   ILE A   6      10.648  19.561   7.644  0.00  0.00    +0.150 HD
BRANCH  13  15
ATOM     15  CA  ILE A   6      10.461  19.824   9.767  0.00  0.00    +0.149 C 
BRANCH  15  16
ATOM     16  C   ILE A   6       9.500  18.925  10.490  0.00  0.00    +0.241 C 
ATOM     17  O   ILE A   6       9.444  18.908  11.734  0.00  0.00    -0.273 OA
ATOM     18  N   GLY A   7       8.748  18.170   9.701  0.00  0.00    -0.295 N 
ATOM     19  H   GLY A   7       8.855  18.189   8.667  0.00  0.00    +0.150 HD
BRANCH  18  20
ATOM     20  CA  GLY A   7       7.773  17.320  10.343  0.00  0.00    +0.176 C 
BRANCH  20  21
ATOM     21  C   GLY A   7       8.276  15.908  10.556  0.00  0.00    +0.243 C 
ATOM     22  O   GLY A   7       7.574  15.129  11.162  0.00  0.00    -0.273 OA
ATOM     23  N   GLY A   8       9.441  15.477  10.149  0.00  0.00    -0.296 N 
ATOM     24  H   GLY A   8      10.117  16.136   9.714  0.00  0.00    +0.150 HD
BRANCH  23  25
ATOM     25  CA  GLY A   8       9.787  14.085  10.304  0.00  0.00    +0.163 C 
BRANCH  25  26
ATOM     26  C   GLY A   8      10.565  13.665   9.070  0.00  0.00    +0.229 C 
ATOM     27  O   GLY A   8      11.165  14.486   8.374  0.00  0.00    -0.286 OA
ENDBRANCH  25  26
ENDBRANCH  23  25
ENDBRANCH  20  21
ENDBRANCH  18  20
ENDBRANCH  15  16
BRANCH  15  28
ATOM     28  CB  ILE A   6       9.866  21.239   9.334  0.00  0.00    +0.027 C 
ATOM     29  CG2 ILE A   6       8.506  21.194   8.682  0.00  0.00    +0.002 C 
BRANCH  28  30
ATOM     30  CG1 ILE A   6       9.610  22.082  10.580  0.00  0.00    +0.002 C 
ATOM     31  CD1 ILE A   6      10.858  22.317  11.427  0.00  0.00    +0.000 C 
ENDBRANCH  28  30
ENDBRANCH  15  28
ENDBRANCH  13  15
ENDBRANCH  10  11
ENDBRANCH   7  10
ENDBRANCH   5   6
ENDBRANCH   2   5
BRANCH   1  32
ATOM     32  CA  ILE A   3      15.708  12.677   4.648  0.00  0.00    +0.149 C 
BRANCH  32  35
ATOM     33  C   MET A   2      16.143  10.293   4.527  0.00  0.00    +0.241 C 
ATOM     34  O   MET A   2      17.354  10.501   4.756  0.00  0.00    -0.273 OA
ATOM     35  N   ILE A   3      15.280  11.308   4.392  0.00  0.00    -0.297 N 
ATOM     36  H   ILE A   3      14.299  11.118   4.103  0.00  0.00    +0.150 HD
BRANCH  33  37
ATOM     37  CA  MET A   2      15.736   8.832   4.358  0.00  0.00    +0.149 C 
BRANCH  37  39
ATOM     38  C   LYS A   1      16.533   7.996   2.186  0.00  0.00    +0.238 C 
ATOM     39  N   MET A   2      16.743   8.377   3.422  0.00  0.00    -0.297 N 
ATOM     40  H   MET A   2      17.725   8.350   3.763  0.00  0.00    +0.150 HD
ATOM     41  O   LYS A   1      15.415   7.953   1.729  0.00  0.00    -0.274 OA
BRANCH  38  42
ATOM     42  CA  LYS A   1      17.739   7.549   1.386  0.00  0.00    +0.145 C 
BRANCH  42  43
ATOM     43  N   LYS A   1      17.281   6.578   0.415  0.00  0.00    -0.238 NA
ATOM     44  H   LYS A   1      16.325   6.659   0.013  0.00  0.00    +0.142 HD
ENDBRANCH  42  43
BRANCH  42  45
ATOM     45  CB  LYS A   1      18.401   8.717   0.665  0.00  0.00    +0.026 C 
BRANCH  45  46
ATOM     46  CG  LYS A   1      19.377   9.372   1.641  0.00  0.00    -0.000 C 
BRANCH  46  47
ATOM     47  CD  LYS A   1      19.955  10.450   0.808  0.00  0.00    -0.024 C 
BRANCH  47  48
ATOM     48  CE  LYS A   1      21.291  10.888   1.300  0.00  0.00    -0.086 C 
BRANCH  48  49
ATOM     49  NZ  LYS A   1      21.196  11.544   2.572  0.00  0.00    +0.380 N 
ATOM     50  HZ1 LYS A   1      20.787  10.889   3.269  0.00  0.00    -0.089 HD
ATOM     51  HZ2 LYS A   1      22.145  11.835   2.883  0.00  0.00    -0.089 HD
ATOM     52  HZ3 LYS A   1      20.587  12.382   2.484  0.00  0.00    -0.089 HD
ENDBRANCH  48  49
ENDBRANCH  47  48
ENDBRANCH  46  47
ENDBRANCH  45  46
ENDBRANCH  42  45
ENDBRANCH  38  42
ENDBRANCH  37  39
BRANCH  37  53
ATOM     53  CB  MET A   2      15.940   8.253   5.681  0.00  0.00    +0.041 C 
BRANCH  53  54
ATOM     54  CG  MET A   2      14.722   8.309   6.493  0.00  0.00    +0.060 C 
BRANCH  54  55
ATOM     55  SD  MET A   2      13.847   6.892   5.826  0.00  0.00    -0.139 S 
ATOM     56  CE  MET A   2      14.773   5.640   6.667  0.00  0.00    +0.069 C 
ENDBRANCH  54  55
ENDBRANCH  53  54
ENDBRANCH  37  53
ENDBRANCH  33  37
ENDBRANCH  32  35
BRANCH  32  57
ATOM     57  CB  ILE A   3      15.697  13.593   3.374  0.00  0.00    +0.027 C 
ATOM     58  CG2 ILE A   3      16.699  13.074   2.370  0.00  0.00    +0.002 C 
BRANCH  57  59
ATOM     59  CG1 ILE A   3      14.417  13.581   2.682  0.00  0.00    +0.002 C 
ATOM     60  CD1 ILE A   3      14.300  14.548   1.503  0.00  0.00    +0.000 C 
ENDBRANCH  57  59
ENDBRANCH  32  57
ENDBRANCH   1  32
TORSDOF 28
REMARK  Name = ../refined-set-2016/1hxw/1hxw_pocket.pdb
REMARK  227 active torsions:
REMARK  status: ('A' for Active; 'I' for Inactive)
REMARK    1  A    between atoms: _1  and  _3
REMARK    2  A    between atoms: _3  and  _4
REMARK    3  A    between atoms: _3  and  _6
REMARK    4  A    between atoms: _6  and  _7
REMARK    5  A    between atoms: _7  and  _8
REMARK    6  A    between atoms: _8  and  _9
REMARK    7  A    between atoms: _18  and  _20
REMARK    8  A    between atoms: _20  and  _21
REMARK    9  A    between atoms: _20  and  _23
REMARK   10  A    between atoms: _23  and  _24
REMARK   11  A    between atoms: _27  and  _29
REMARK   12  A    between atoms: _29  and  _30
REMARK   13  A    between atoms: _29  and  _32
REMARK   14  A    between atoms: _32  and  _33
REMARK   15  A    between atoms: _36  and  _38
REMARK   16  A    between atoms: _38  and  _39
REMARK   17  A    between atoms: _38  and  _41
REMARK   18  A    between atoms: _41  and  _42
REMARK   19  A    between atoms: _45  and  _47
REMARK   20  A    between atoms: _47  and  _48
REMARK   21  A    between atoms: _47  and  _50
REMARK   22  A    between atoms: _50  and  _51
REMARK   23  A    between atoms: _54  and  _56
REMARK   24  A    between atoms: _56  and  _57
REMARK   25  A    between atoms: _59  and  _61
REMARK   26  A    between atoms: _61  and  _62
REMARK   27  A    between atoms: _65  and  _67
REMARK   28  A    between atoms: _67  and  _68
REMARK   29  A    between atoms: _67  and  _70
REMARK   30  A    between atoms: _70  and  _71
REMARK   31  A    between atoms: _74  and  _76
REMARK   32  A    between atoms: _76  and  _77
REMARK   33  A    between atoms: _76  and  _79
REMARK   34  A    between atoms: _79  and  _80
REMARK   35  A    between atoms: _83  and  _85
REMARK   36  A    between atoms: _85  and  _86
REMARK   37  A    between atoms: _85  and  _88
REMARK   38  A    between atoms: _88  and  _89
REMARK   39  A    between atoms: _92  and  _94
REMARK   40  A    between atoms: _94  and  _95
REMARK   41  A    between atoms: _94  and  _97
REMARK   42  A    between atoms: _100  and  _102
REMARK   43  A    between atoms: _102  and  _103
REMARK   44  A    between atoms: _102  and  _105
REMARK   45  A    between atoms: _105  and  _106
REMARK   46  A    between atoms: _106  and  _107
REMARK   47  A    between atoms: _107  and  _108
REMARK   48  A    between atoms: _108  and  _109
REMARK   49  A    between atoms: _113  and  _115
REMARK   50  A    between atoms: _115  and  _116
REMARK   51  A    between atoms: _115  and  _118
REMARK   52  A    between atoms: _118  and  _119
REMARK   53  A    between atoms: _119  and  _120
REMARK   54  A    between atoms: _122  and  _124
REMARK   55  A    between atoms: _124  and  _125
REMARK   56  A    between atoms: _124  and  _127
REMARK   57  A    between atoms: _127  and  _128
REMARK   58  A    between atoms: _131  and  _133
REMARK   59  A    between atoms: _133  and  _134
REMARK   60  A    between atoms: _136  and  _138
REMARK   61  A    between atoms: _138  and  _139
REMARK   62  A    between atoms: _141  and  _143
REMARK   63  A    between atoms: _143  and  _144
REMARK   64  A    between atoms: _143  and  _146
REMARK   65  A    between atoms: _146  and  _147
REMARK   66  A    between atoms: _150  and  _152
REMARK   67  A    between atoms: _152  and  _153
REMARK   68  A    between atoms: _155  and  _157
REMARK   69  A    between atoms: _157  and  _158
REMARK   70  A    between atoms: _160  and  _162
REMARK   71  A    between atoms: _162  and  _163
REMARK   72  A    between atoms: _162  and  _165
REMARK   73  A    between atoms: _165  and  _166
REMARK   74  A    between atoms: _172  and  _174
REMARK   75  A    between atoms: _174  and  _175
REMARK   76  A    between atoms: _174  and  _177
REMARK   77  A    between atoms: _177  and  _178
REMARK   78  A    between atoms: _181  and  _183
REMARK   79  A    between atoms: _183  and  _184
REMARK   80  A    between atoms: _183  and  _186
REMARK   81  A    between atoms: _186  and  _187
REMARK   82  A    between atoms: _191  and  _192
REMARK   83  A    between atoms: _197  and  _199
REMARK   84  A    between atoms: _199  and  _200
REMARK   85  A    between atoms: _199  and  _202
REMARK   86  A    between atoms: _202  and  _203
REMARK   87  A    between atoms: _207  and  _208
REMARK   88  A    between atoms: _213  and  _215
REMARK   89  A    between atoms: _215  and  _216
REMARK   90  A    between atoms: _215  and  _218
REMARK   91  A    between atoms: _221  and  _223
REMARK   92  A    between atoms: _223  and  _224
REMARK   93  A    between atoms: _223  and  _226
REMARK   94  A    between atoms: _226  and  _227
REMARK   95  A    between atoms: _232  and  _234
REMARK   96  A    between atoms: _234  and  _235
REMARK   97  A    between atoms: _234  and  _237
REMARK   98  A    between atoms: _237  and  _238
REMARK   99  A    between atoms: _241  and  _243
REMARK  100  A    between atoms: _243  and  _244
REMARK  101  A    between atoms: _246  and  _248
REMARK  102  A    between atoms: _248  and  _249
REMARK  103  A    between atoms: _248  and  _251
REMARK  104  A    between atoms: _251  and  _252
REMARK  105  A    between atoms: _252  and  _253
REMARK  106  A    between atoms: _253  and  _254
REMARK  107  A    between atoms: _263  and  _265
REMARK  108  A    between atoms: _265  and  _266
REMARK  109  A    between atoms: _265  and  _268
REMARK  110  A    between atoms: _268  and  _269
REMARK  111  A    between atoms: _269  and  _270
REMARK  112  A    between atoms: _270  and  _271
REMARK  113  A    between atoms: _280  and  _282
REMARK  114  A    between atoms: _282  and  _283
REMARK  115  A    between atoms: _282  and  _285
REMARK  116  A    between atoms: _285  and  _286
REMARK  117  A    between atoms: _289  and  _291
REMARK  118  A    between atoms: _291  and  _292
REMARK  119  A    between atoms: _291  and  _294
REMARK  120  A    between atoms: _294  and  _295
REMARK  121  A    between atoms: _298  and  _300
REMARK  122  A    between atoms: _300  and  _301
REMARK  123  A    between atoms: _300  and  _303
REMARK  124  A    between atoms: _303  and  _304
REMARK  125  A    between atoms: _307  and  _309
REMARK  126  A    between atoms: _309  and  _310
REMARK  127  A    between atoms: _309  and  _312
REMARK  128  A    between atoms: _312  and  _313
REMARK  129  A    between atoms: _316  and  _318
REMARK  130  A    between atoms: _318  and  _319
REMARK  131  A    between atoms: _318  and  _321
REMARK  132  A    between atoms: _321  and  _322
REMARK  133  A    between atoms: _325  and  _327
REMARK  134  A    between atoms: _327  and  _328
REMARK  135  A    between atoms: _330  and  _332
REMARK  136  A    between atoms: _332  and  _333
REMARK  137  A    between atoms: _336  and  _338
REMARK  138  A    between atoms: _338  and  _339
REMARK  139  A    between atoms: _338  and  _341
REMARK  140  A    between atoms: _341  and  _342
REMARK  141  A    between atoms: _345  and  _347
REMARK  142  A    between atoms: _347  and  _348
REMARK  143  A    between atoms: _347  and  _350
REMARK  144  A    between atoms: _350  and  _351
REMARK  145  A    between atoms: _354  and  _356
REMARK  146  A    between atoms: _356  and  _357
REMARK  147  A    between atoms: _356  and  _359
REMARK  148  A    between atoms: _359  and  _360
REMARK  149  A    between atoms: _363  and  _365
REMARK  150  A    between atoms: _365  and  _366
REMARK  151  A    between atoms: _365  and  _368
REMARK  152  A    between atoms: _371  and  _373
REMARK  153  A    between atoms: _373  and  _374
REMARK  154  A    between atoms: _373  and  _376
REMARK  155  A    between atoms: _376  and  _377
REMARK  156  A    between atoms: _380  and  _382
REMARK  157  A    between atoms: _382  and  _383
REMARK  158  A    between atoms: _382  and  _385
REMARK  159  A    between atoms: _385  and  _386
REMARK  160  A    between atoms: _386  and  _387
REMARK  161  A    between atoms: _387  and  _388
REMARK  162  A    between atoms: _388  and  _389
REMARK  163  A    between atoms: _393  and  _395
REMARK  164  A    between atoms: _395  and  _396
REMARK  165  A    between atoms: _395  and  _398
REMARK  166  A    between atoms: _398  and  _399
REMARK  167  A    between atoms: _399  and  _400
REMARK  168  A    between atoms: _402  and  _404
REMARK  169  A    between atoms: _404  and  _405
REMARK  170  A    between atoms: _404  and  _407
REMARK  171  A    between atoms: _407  and  _408
REMARK  172  A    between atoms: _411  and  _413
REMARK  173  A    between atoms: _413  and  _414
REMARK  174  A    between atoms: _416  and  _418
REMARK  175  A    between atoms: _418  and  _419
REMARK  176  A    between atoms: _421  and  _423
REMARK  177  A    between atoms: _423  and  _424
REMARK  178  A    between atoms: _423  and  _426
REMARK  179  A    between atoms: _426  and  _427
REMARK  180  A    between atoms: _430  and  _432
REMARK  181  A    between atoms: _432  and  _433
REMARK  182  A    between atoms: _435  and  _437
REMARK  183  A    between atoms: _437  and  _438
REMARK  184  A    between atoms: _440  and  _442
REMARK  185  A    between atoms: _442  and  _443
REMARK  186  A    between atoms: _442  and  _445
REMARK  187  A    between atoms: _445  and  _446
REMARK  188  A    between atoms: _449  and  _451
REMARK  189  A    between atoms: _451  and  _452
REMARK  190  A    between atoms: _451  and  _454
REMARK  191  A    between atoms: _457  and  _459
REMARK  192  A    between atoms: _459  and  _460
REMARK  193  A    between atoms: _459  and  _462
REMARK  194  A    between atoms: _462  and  _463
REMARK  195  A    between atoms: _467  and  _468
REMARK  196  A    between atoms: _473  and  _475
REMARK  197  A    between atoms: _475  and  _476
REMARK  198  A    between atoms: _475  and  _478
REMARK  199  A    between atoms: _478  and  _479
REMARK  200  A    between atoms: _483  and  _484
REMARK  201  A    between atoms: _489  and  _491
REMARK  202  A    between atoms: _491  and  _492
REMARK  203  A    between atoms: _491  and  _494
REMARK  204  A    between atoms: _497  and  _499
REMARK  205  A    between atoms: _499  and  _500
REMARK  206  A    between atoms: _499  and  _502
REMARK  207  A    between atoms: _502  and  _503
REMARK  208  A    between atoms: _508  and  _510
REMARK  209  A    between atoms: _510  and  _511
REMARK  210  A    between atoms: _510  and  _513
REMARK  211  A    between atoms: _513  and  _514
REMARK  212  A    between atoms: _517  and  _519
REMARK  213  A    between atoms: _519  and  _520
REMARK  214  A    between atoms: _519  and  _522
REMARK  215  A    between atoms: _522  and  _523
REMARK  216  A    between atoms: _526  and  _528
REMARK  217  A    between atoms: _528  and  _529
REMARK  218  A    between atoms: _531  and  _533
REMARK  219  A    between atoms: _533  and  _534
REMARK  220  A    between atoms: _533  and  _536
REMARK  221  A    between atoms: _536  and  _537
REMARK  222  A    between atoms: _537  and  _538
REMARK  223  A    between atoms: _538  and  _539
REMARK  224  A    between atoms: _548  and  _550
REMARK  225  A    between atoms: _550  and  _551
REMARK  226  A    between atoms: _550  and  _553
REMARK  227  A    between atoms: _553  and  _554
REMARK                            x       y       z     vdW  Elec       q    Type
REMARK                         _______ _______ _______ _____ _____    ______ ____
ROOT
ATOM      1  CA  ILE A   1      10.579  10.585   4.172  0.00  0.00    +0.133 C 
ENDROOT
BRANCH   1   2
ATOM      2  N   ILE A   1      11.165  11.214   5.318  0.00  0.00    -0.239 NA
ATOM      3  H   ILE A   1      12.081  11.693   5.202  0.00  0.00    +0.142 HD
ENDBRANCH   1   2
BRANCH   1   4
ATOM      4  C   ILE A   1      11.645   9.718   3.525  0.00  0.00    +0.224 C 
ATOM      5  O   ILE A   1      12.836  10.001   3.673  0.00  0.00    -0.287 OA
ENDBRANCH   1   4
BRANCH   1   6
ATOM      6  CB  ILE A   1      10.084  11.565   3.089  0.00  0.00    +0.023 C 
ATOM      7  CG2 ILE A   1       8.791  12.094   3.601  0.00  0.00    +0.002 C 
BRANCH   6   8
ATOM      8  CG1 ILE A   1      11.083  12.633   2.712  0.00  0.00    +0.002 C 
ATOM      9  CD1 ILE A   1      10.449  13.285   1.473  0.00  0.00    +0.000 C 
ENDBRANCH   6   8
ENDBRANCH   1   6
TORSDOF 4
REMARK  Name = ../refined-set-2016/1hxw/1hxw_pocket.pdb
REMARK  227 active torsions:
REMARK  status: ('A' for Active; 'I' for Inactive)
REMARK    1  A    between atoms: _1  and  _3
REMARK    2  A    between atoms: _3  and  _4
REMARK    3  A    between atoms: _3  and  _6
REMARK    4  A    between atoms: _6  and  _7
REMARK    5  A    between atoms: _7  and  _8
REMARK    6  A    between atoms: _8  and  _9
REMARK    7  A    between atoms: _18  and  _20
REMARK    8  A    between atoms: _20  and  _21
REMARK    9  A    between atoms: _20  and  _23
REMARK   10  A    between atoms: _23  and  _24
REMARK   11  A    between atoms: _27  and  _29
REMARK   12  A    between atoms: _29  and  _30
REMARK   13  A    between atoms: _29  and  _32
REMARK   14  A    between atoms: _32  and  _33
REMARK   15  A    between atoms: _36  and  _38
REMARK   16  A    between atoms: _38  and  _39
REMARK   17  A    between atoms: _38  and  _41
REMARK   18  A    between atoms: _41  and  _42
REMARK   19  A    between atoms: _45  and  _47
REMARK   20  A    between atoms: _47  and  _48
REMARK   21  A    between atoms: _47  and  _50
REMARK   22  A    between atoms: _50  and  _51
REMARK   23  A    between atoms: _54  and  _56
REMARK   24  A    between atoms: _56  and  _57
REMARK   25  A    between atoms: _59  and  _61
REMARK   26  A    between atoms: _61  and  _62
REMARK   27  A    between atoms: _65  and  _67
REMARK   28  A    between atoms: _67  and  _68
REMARK   29  A    between atoms: _67  and  _70
REMARK   30  A    between atoms: _70  and  _71
REMARK   31  A    between atoms: _74  and  _76
REMARK   32  A    between atoms: _76  and  _77
REMARK   33  A    between atoms: _76  and  _79
REMARK   34  A    between atoms: _79  and  _80
REMARK   35  A    between atoms: _83  and  _85
REMARK   36  A    between atoms: _85  and  _86
REMARK   37  A    between atoms: _85  and  _88
REMARK   38  A    between atoms: _88  and  _89
REMARK   39  A    between atoms: _92  and  _94
REMARK   40  A    between atoms: _94  and  _95
REMARK   41  A    between atoms: _94  and  _97
REMARK   42  A    between atoms: _100  and  _102
REMARK   43  A    between atoms: _102  and  _103
REMARK   44  A    between atoms: _102  and  _105
REMARK   45  A    between atoms: _105  and  _106
REMARK   46  A    between atoms: _106  and  _107
REMARK   47  A    between atoms: _107  and  _108
REMARK   48  A    between atoms: _108  and  _109
REMARK   49  A    between atoms: _113  and  _115
REMARK   50  A    between atoms: _115  and  _116
REMARK   51  A    between atoms: _115  and  _118
REMARK   52  A    between atoms: _118  and  _119
REMARK   53  A    between atoms: _119  and  _120
REMARK   54  A    between atoms: _122  and  _124
REMARK   55  A    between atoms: _124  and  _125
REMARK   56  A    between atoms: _124  and  _127
REMARK   57  A    between atoms: _127  and  _128
REMARK   58  A    between atoms: _131  and  _133
REMARK   59  A    between atoms: _133  and  _134
REMARK   60  A    between atoms: _136  and  _138
REMARK   61  A    between atoms: _138  and  _139
REMARK   62  A    between atoms: _141  and  _143
REMARK   63  A    between atoms: _143  and  _144
REMARK   64  A    between atoms: _143  and  _146
REMARK   65  A    between atoms: _146  and  _147
REMARK   66  A    between atoms: _150  and  _152
REMARK   67  A    between atoms: _152  and  _153
REMARK   68  A    between atoms: _155  and  _157
REMARK   69  A    between atoms: _157  and  _158
REMARK   70  A    between atoms: _160  and  _162
REMARK   71  A    between atoms: _162  and  _163
REMARK   72  A    between atoms: _162  and  _165
REMARK   73  A    between atoms: _165  and  _166
REMARK   74  A    between atoms: _172  and  _174
REMARK   75  A    between atoms: _174  and  _175
REMARK   76  A    between atoms: _174  and  _177
REMARK   77  A    between atoms: _177  and  _178
REMARK   78  A    between atoms: _181  and  _183
REMARK   79  A    between atoms: _183  and  _184
REMARK   80  A    between atoms: _183  and  _186
REMARK   81  A    between atoms: _186  and  _187
REMARK   82  A    between atoms: _191  and  _192
REMARK   83  A    between atoms: _197  and  _199
REMARK   84  A    between atoms: _199  and  _200
REMARK   85  A    between atoms: _199  and  _202
REMARK   86  A    between atoms: _202  and  _203
REMARK   87  A    between atoms: _207  and  _208
REMARK   88  A    between atoms: _213  and  _215
REMARK   89  A    between atoms: _215  and  _216
REMARK   90  A    between atoms: _215  and  _218
REMARK   91  A    between atoms: _221  and  _223
REMARK   92  A    between atoms: _223  and  _224
REMARK   93  A    between atoms: _223  and  _226
REMARK   94  A    between atoms: _226  and  _227
REMARK   95  A    between atoms: _232  and  _234
REMARK   96  A    between atoms: _234  and  _235
REMARK   97  A    between atoms: _234  and  _237
REMARK   98  A    between atoms: _237  and  _238
REMARK   99  A    between atoms: _241  and  _243
REMARK  100  A    between atoms: _243  and  _244
REMARK  101  A    between atoms: _246  and  _248
REMARK  102  A    between atoms: _248  and  _249
REMARK  103  A    between atoms: _248  and  _251
REMARK  104  A    between atoms: _251  and  _252
REMARK  105  A    between atoms: _252  and  _253
REMARK  106  A    between atoms: _253  and  _254
REMARK  107  A    between atoms: _263  and  _265
REMARK  108  A    between atoms: _265  and  _266
REMARK  109  A    between atoms: _265  and  _268
REMARK  110  A    between atoms: _268  and  _269
REMARK  111  A    between atoms: _269  and  _270
REMARK  112  A    between atoms: _270  and  _271
REMARK  113  A    between atoms: _280  and  _282
REMARK  114  A    between atoms: _282  and  _283
REMARK  115  A    between atoms: _282  and  _285
REMARK  116  A    between atoms: _285  and  _286
REMARK  117  A    between atoms: _289  and  _291
REMARK  118  A    between atoms: _291  and  _292
REMARK  119  A    between atoms: _291  and  _294
REMARK  120  A    between atoms: _294  and  _295
REMARK  121  A    between atoms: _298  and  _300
REMARK  122  A    between atoms: _300  and  _301
REMARK  123  A    between atoms: _300  and  _303
REMARK  124  A    between atoms: _303  and  _304
REMARK  125  A    between atoms: _307  and  _309
REMARK  126  A    between atoms: _309  and  _310
REMARK  127  A    between atoms: _309  and  _312
REMARK  128  A    between atoms: _312  and  _313
REMARK  129  A    between atoms: _316  and  _318
REMARK  130  A    between atoms: _318  and  _319
REMARK  131  A    between atoms: _318  and  _321
REMARK  132  A    between atoms: _321  and  _322
REMARK  133  A    between atoms: _325  and  _327
REMARK  134  A    between atoms: _327  and  _328
REMARK  135  A    between atoms: _330  and  _332
REMARK  136  A    between atoms: _332  and  _333
REMARK  137  A    between atoms: _336  and  _338
REMARK  138  A    between atoms: _338  and  _339
REMARK  139  A    between atoms: _338  and  _341
REMARK  140  A    between atoms: _341  and  _342
REMARK  141  A    between atoms: _345  and  _347
REMARK  142  A    between atoms: _347  and  _348
REMARK  143  A    between atoms: _347  and  _350
REMARK  144  A    between atoms: _350  and  _351
REMARK  145  A    between atoms: _354  and  _356
REMARK  146  A    between atoms: _356  and  _357
REMARK  147  A    between atoms: _356  and  _359
REMARK  148  A    between atoms: _359  and  _360
REMARK  149  A    between atoms: _363  and  _365
REMARK  150  A    between atoms: _365  and  _366
REMARK  151  A    between atoms: _365  and  _368
REMARK  152  A    between atoms: _371  and  _373
REMARK  153  A    between atoms: _373  and  _374
REMARK  154  A    between atoms: _373  and  _376
REMARK  155  A    between atoms: _376  and  _377
REMARK  156  A    between atoms: _380  and  _382
REMARK  157  A    between atoms: _382  and  _383
REMARK  158  A    between atoms: _382  and  _385
REMARK  159  A    between atoms: _385  and  _386
REMARK  160  A    between atoms: _386  and  _387
REMARK  161  A    between atoms: _387  and  _388
REMARK  162  A    between atoms: _388  and  _389
REMARK  163  A    between atoms: _393  and  _395
REMARK  164  A    between atoms: _395  and  _396
REMARK  165  A    between atoms: _395  and  _398
REMARK  166  A    between atoms: _398  and  _399
REMARK  167  A    between atoms: _399  and  _400
REMARK  168  A    between atoms: _402  and  _404
REMARK  169  A    between atoms: _404  and  _405
REMARK  170  A    between atoms: _404  and  _407
REMARK  171  A    between atoms: _407  and  _408
REMARK  172  A    between atoms: _411  and  _413
REMARK  173  A    between atoms: _413  and  _414
REMARK  174  A    between atoms: _416  and  _418
REMARK  175  A    between atoms: _418  and  _419
REMARK  176  A    between atoms: _421  and  _423
REMARK  177  A    between atoms: _423  and  _424
REMARK  178  A    between atoms: _423  and  _426
REMARK  179  A    between atoms: _426  and  _427
REMARK  180  A    between atoms: _430  and  _432
REMARK  181  A    between atoms: _432  and  _433
REMARK  182  A    between atoms: _435  and  _437
REMARK  183  A    between atoms: _437  and  _438
REMARK  184  A    between atoms: _440  and  _442
REMARK  185  A    between atoms: _442  and  _443
REMARK  186  A    between atoms: _442  and  _445
REMARK  187  A    between atoms: _445  and  _446
REMARK  188  A    between atoms: _449  and  _451
REMARK  189  A    between atoms: _451  and  _452
REMARK  190  A    between atoms: _451  and  _454
REMARK  191  A    between atoms: _457  and  _459
REMARK  192  A    between atoms: _459  and  _460
REMARK  193  A    between atoms: _459  and  _462
REMARK  194  A    between atoms: _462  and  _463
REMARK  195  A    between atoms: _467  and  _468
REMARK  196  A    between atoms: _473  and  _475
REMARK  197  A    between atoms: _475  and  _476
REMARK  198  A    between atoms: _475  and  _478
REMARK  199  A    between atoms: _478  and  _479
REMARK  200  A    between atoms: _483  and  _484
REMARK  201  A    between atoms: _489  and  _491
REMARK  202  A    between atoms: _491  and  _492
REMARK  203  A    between atoms: _491  and  _494
REMARK  204  A    between atoms: _497  and  _499
REMARK  205  A    between atoms: _499  and  _500
REMARK  206  A    between atoms: _499  and  _502
REMARK  207  A    between atoms: _502  and  _503
REMARK  208  A    between atoms: _508  and  _510
REMARK  209  A    between atoms: _510  and  _511
REMARK  210  A    between atoms: _510  and  _513
REMARK  211  A    between atoms: _513  and  _514
REMARK  212  A    between atoms: _517  and  _519
REMARK  213  A    between atoms: _519  and  _520
REMARK  214  A    between atoms: _519  and  _522
REMARK  215  A    between atoms: _522  and  _523
REMARK  216  A    between atoms: _526  and  _528
REMARK  217  A    between atoms: _528  and  _529
REMARK  218  A    between atoms: _531  and  _533
REMARK  219  A    between atoms: _533  and  _534
REMARK  220  A    between atoms: _533  and  _536
REMARK  221  A    between atoms: _536  and  _537
REMARK  222  A    between atoms: _537  and  _538
REMARK  223  A    between atoms: _538  and  _539
REMARK  224  A    between atoms: _548  and  _550
REMARK  225  A    between atoms: _550  and  _551
REMARK  226  A    between atoms: _550  and  _553
REMARK  227  A    between atoms: _553  and  _554
REMARK                            x       y       z     vdW  Elec       q    Type
REMARK                         _______ _______ _______ _____ _____    ______ ____
ROOT
ATOM      1  CA  VAL A   1      13.475   9.045  -1.206  0.00  0.00    +0.133 C 
ENDROOT
BRANCH   1   2
ATOM      2  CB  VAL A   1      14.004  10.530  -1.128  0.00  0.00    +0.023 C 
ATOM      3  CG2 VAL A   1      15.281  10.551  -0.371  0.00  0.00    +0.002 C 
ATOM      4  CG1 VAL A   1      12.995  11.455  -0.504  0.00  0.00    +0.002 C 
ENDBRANCH   1   2
BRANCH   1   5
ATOM      5  N   VAL A   1      13.365   8.524   0.100  0.00  0.00    -0.239 NA
ATOM      6  H   VAL A   1      14.226   8.234   0.606  0.00  0.00    +0.142 HD
ENDBRANCH   1   5
BRANCH   1   7
ATOM      7  C   VAL A   1      14.426   8.115  -1.956  0.00  0.00    +0.224 C 
ATOM      8  O   VAL A   1      15.127   7.258  -1.388  0.00  0.00    -0.287 OA
ENDBRANCH   1   7
TORSDOF 3
REMARK  Name = ../refined-set-2016/1hxw/1hxw_pocket.pdb
REMARK  227 active torsions:
REMARK  status: ('A' for Active; 'I' for Inactive)
REMARK    1  A    between atoms: _1  and  _3
REMARK    2  A    between atoms: _3  and  _4
REMARK    3  A    between atoms: _3  and  _6
REMARK    4  A    between atoms: _6  and  _7
REMARK    5  A    between atoms: _7  and  _8
REMARK    6  A    between atoms: _8  and  _9
REMARK    7  A    between atoms: _18  and  _20
REMARK    8  A    between atoms: _20  and  _21
REMARK    9  A    between atoms: _20  and  _23
REMARK   10  A    between atoms: _23  and  _24
REMARK   11  A    between atoms: _27  and  _29
REMARK   12  A    between atoms: _29  and  _30
REMARK   13  A    between atoms: _29  and  _32
REMARK   14  A    between atoms: _32  and  _33
REMARK   15  A    between atoms: _36  and  _38
REMARK   16  A    between atoms: _38  and  _39
REMARK   17  A    between atoms: _38  and  _41
REMARK   18  A    between atoms: _41  and  _42
REMARK   19  A    between atoms: _45  and  _47
REMARK   20  A    between atoms: _47  and  _48
REMARK   21  A    between atoms: _47  and  _50
REMARK   22  A    between atoms: _50  and  _51
REMARK   23  A    between atoms: _54  and  _56
REMARK   24  A    between atoms: _56  and  _57
REMARK   25  A    between atoms: _59  and  _61
REMARK   26  A    between atoms: _61  and  _62
REMARK   27  A    between atoms: _65  and  _67
REMARK   28  A    between atoms: _67  and  _68
REMARK   29  A    between atoms: _67  and  _70
REMARK   30  A    between atoms: _70  and  _71
REMARK   31  A    between atoms: _74  and  _76
REMARK   32  A    between atoms: _76  and  _77
REMARK   33  A    between atoms: _76  and  _79
REMARK   34  A    between atoms: _79  and  _80
REMARK   35  A    between atoms: _83  and  _85
REMARK   36  A    between atoms: _85  and  _86
REMARK   37  A    between atoms: _85  and  _88
REMARK   38  A    between atoms: _88  and  _89
REMARK   39  A    between atoms: _92  and  _94
REMARK   40  A    between atoms: _94  and  _95
REMARK   41  A    between atoms: _94  and  _97
REMARK   42  A    between atoms: _100  and  _102
REMARK   43  A    between atoms: _102  and  _103
REMARK   44  A    between atoms: _102  and  _105
REMARK   45  A    between atoms: _105  and  _106
REMARK   46  A    between atoms: _106  and  _107
REMARK   47  A    between atoms: _107  and  _108
REMARK   48  A    between atoms: _108  and  _109
REMARK   49  A    between atoms: _113  and  _115
REMARK   50  A    between atoms: _115  and  _116
REMARK   51  A    between atoms: _115  and  _118
REMARK   52  A    between atoms: _118  and  _119
REMARK   53  A    between atoms: _119  and  _120
REMARK   54  A    between atoms: _122  and  _124
REMARK   55  A    between atoms: _124  and  _125
REMARK   56  A    between atoms: _124  and  _127
REMARK   57  A    between atoms: _127  and  _128
REMARK   58  A    between atoms: _131  and  _133
REMARK   59  A    between atoms: _133  and  _134
REMARK   60  A    between atoms: _136  and  _138
REMARK   61  A    between atoms: _138  and  _139
REMARK   62  A    between atoms: _141  and  _143
REMARK   63  A    between atoms: _143  and  _144
REMARK   64  A    between atoms: _143  and  _146
REMARK   65  A    between atoms: _146  and  _147
REMARK   66  A    between atoms: _150  and  _152
REMARK   67  A    between atoms: _152  and  _153
REMARK   68  A    between atoms: _155  and  _157
REMARK   69  A    between atoms: _157  and  _158
REMARK   70  A    between atoms: _160  and  _162
REMARK   71  A    between atoms: _162  and  _163
REMARK   72  A    between atoms: _162  and  _165
REMARK   73  A    between atoms: _165  and  _166
REMARK   74  A    between atoms: _172  and  _174
REMARK   75  A    between atoms: _174  and  _175
REMARK   76  A    between atoms: _174  and  _177
REMARK   77  A    between atoms: _177  and  _178
REMARK   78  A    between atoms: _181  and  _183
REMARK   79  A    between atoms: _183  and  _184
REMARK   80  A    between atoms: _183  and  _186
REMARK   81  A    between atoms: _186  and  _187
REMARK   82  A    between atoms: _191  and  _192
REMARK   83  A    between atoms: _197  and  _199
REMARK   84  A    between atoms: _199  and  _200
REMARK   85  A    between atoms: _199  and  _202
REMARK   86  A    between atoms: _202  and  _203
REMARK   87  A    between atoms: _207  and  _208
REMARK   88  A    between atoms: _213  and  _215
REMARK   89  A    between atoms: _215  and  _216
REMARK   90  A    between atoms: _215  and  _218
REMARK   91  A    between atoms: _221  and  _223
REMARK   92  A    between atoms: _223  and  _224
REMARK   93  A    between atoms: _223  and  _226
REMARK   94  A    between atoms: _226  and  _227
REMARK   95  A    between atoms: _232  and  _234
REMARK   96  A    between atoms: _234  and  _235
REMARK   97  A    between atoms: _234  and  _237
REMARK   98  A    between atoms: _237  and  _238
REMARK   99  A    between atoms: _241  and  _243
REMARK  100  A    between atoms: _243  and  _244
REMARK  101  A    between atoms: _246  and  _248
REMARK  102  A    between atoms: _248  and  _249
REMARK  103  A    between atoms: _248  and  _251
REMARK  104  A    between atoms: _251  and  _252
REMARK  105  A    between atoms: _252  and  _253
REMARK  106  A    between atoms: _253  and  _254
REMARK  107  A    between atoms: _263  and  _265
REMARK  108  A    between atoms: _265  and  _266
REMARK  109  A    between atoms: _265  and  _268
REMARK  110  A    between atoms: _268  and  _269
REMARK  111  A    between atoms: _269  and  _270
REMARK  112  A    between atoms: _270  and  _271
REMARK  113  A    between atoms: _280  and  _282
REMARK  114  A    between atoms: _282  and  _283
REMARK  115  A    between atoms: _282  and  _285
REMARK  116  A    between atoms: _285  and  _286
REMARK  117  A    between atoms: _289  and  _291
REMARK  118  A    between atoms: _291  and  _292
REMARK  119  A    between atoms: _291  and  _294
REMARK  120  A    between atoms: _294  and  _295
REMARK  121  A    between atoms: _298  and  _300
REMARK  122  A    between atoms: _300  and  _301
REMARK  123  A    between atoms: _300  and  _303
REMARK  124  A    between atoms: _303  and  _304
REMARK  125  A    between atoms: _307  and  _309
REMARK  126  A    between atoms: _309  and  _310
REMARK  127  A    between atoms: _309  and  _312
REMARK  128  A    between atoms: _312  and  _313
REMARK  129  A    between atoms: _316  and  _318
REMARK  130  A    between atoms: _318  and  _319
REMARK  131  A    between atoms: _318  and  _321
REMARK  132  A    between atoms: _321  and  _322
REMARK  133  A    between atoms: _325  and  _327
REMARK  134  A    between atoms: _327  and  _328
REMARK  135  A    between atoms: _330  and  _332
REMARK  136  A    between atoms: _332  and  _333
REMARK  137  A    between atoms: _336  and  _338
REMARK  138  A    between atoms: _338  and  _339
REMARK  139  A    between atoms: _338  and  _341
REMARK  140  A    between atoms: _341  and  _342
REMARK  141  A    between atoms: _345  and  _347
REMARK  142  A    between atoms: _347  and  _348
REMARK  143  A    between atoms: _347  and  _350
REMARK  144  A    between atoms: _350  and  _351
REMARK  145  A    between atoms: _354  and  _356
REMARK  146  A    between atoms: _356  and  _357
REMARK  147  A    between atoms: _356  and  _359
REMARK  148  A    between atoms: _359  and  _360
REMARK  149  A    between atoms: _363  and  _365
REMARK  150  A    between atoms: _365  and  _366
REMARK  151  A    between atoms: _365  and  _368
REMARK  152  A    between atoms: _371  and  _373
REMARK  153  A    between atoms: _373  and  _374
REMARK  154  A    between atoms: _373  and  _376
REMARK  155  A    between atoms: _376  and  _377
REMARK  156  A    between atoms: _380  and  _382
REMARK  157  A    between atoms: _382  and  _383
REMARK  158  A    between atoms: _382  and  _385
REMARK  159  A    between atoms: _385  and  _386
REMARK  160  A    between atoms: _386  and  _387
REMARK  161  A    between atoms: _387  and  _388
REMARK  162  A    between atoms: _388  and  _389
REMARK  163  A    between atoms: _393  and  _395
REMARK  164  A    between atoms: _395  and  _396
REMARK  165  A    between atoms: _395  and  _398
REMARK  166  A    between atoms: _398  and  _399
REMARK  167  A    between atoms: _399  and  _400
REMARK  168  A    between atoms: _402  and  _404
REMARK  169  A    between atoms: _404  and  _405
REMARK  170  A    between atoms: _404  and  _407
REMARK  171  A    between atoms: _407  and  _408
REMARK  172  A    between atoms: _411  and  _413
REMARK  173  A    between atoms: _413  and  _414
REMARK  174  A    between atoms: _416  and  _418
REMARK  175  A    between atoms: _418  and  _419
REMARK  176  A    between atoms: _421  and  _423
REMARK  177  A    between atoms: _423  and  _424
REMARK  178  A    between atoms: _423  and  _426
REMARK  179  A    between atoms: _426  and  _427
REMARK  180  A    between atoms: _430  and  _432
REMARK  181  A    between atoms: _432  and  _433
REMARK  182  A    between atoms: _435  and  _437
REMARK  183  A    between atoms: _437  and  _438
REMARK  184  A    between atoms: _440  and  _442
REMARK  185  A    between atoms: _442  and  _443
REMARK  186  A    between atoms: _442  and  _445
REMARK  187  A    between atoms: _445  and  _446
REMARK  188  A    between atoms: _449  and  _451
REMARK  189  A    between atoms: _451  and  _452
REMARK  190  A    between atoms: _451  and  _454
REMARK  191  A    between atoms: _457  and  _459
REMARK  192  A    between atoms: _459  and  _460
REMARK  193  A    between atoms: _459  and  _462
REMARK  194  A    between atoms: _462  and  _463
REMARK  195  A    between atoms: _467  and  _468
REMARK  196  A    between atoms: _473  and  _475
REMARK  197  A    between atoms: _475  and  _476
REMARK  198  A    between atoms: _475  and  _478
REMARK  199  A    between atoms: _478  and  _479
REMARK  200  A    between atoms: _483  and  _484
REMARK  201  A    between atoms: _489  and  _491
REMARK  202  A    between atoms: _491  and  _492
REMARK  203  A    between atoms: _491  and  _494
REMARK  204  A    between atoms: _497  and  _499
REMARK  205  A    between atoms: _499  and  _500
REMARK  206  A    between atoms: _499  and  _502
REMARK  207  A    between atoms: _502  and  _503
REMARK  208  A    between atoms: _508  and  _510
REMARK  209  A    between atoms: _510  and  _511
REMARK  210  A    between atoms: _510  and  _513
REMARK  211  A    between atoms: _513  and  _514
REMARK  212  A    between atoms: _517  and  _519
REMARK  213  A    between atoms: _519  and  _520
REMARK  214  A    between atoms: _519  and  _522
REMARK  215  A    between atoms: _522  and  _523
REMARK  216  A    between atoms: _526  and  _528
REMARK  217  A    between atoms: _528  and  _529
REMARK  218  A    between atoms: _531  and  _533
REMARK  219  A    between atoms: _533  and  _534
REMARK  220  A    between atoms: _533  and  _536
REMARK  221  A    between atoms: _536  and  _537
REMARK  222  A    between atoms: _537  and  _538
REMARK  223  A    between atoms: _538  and  _539
REMARK  224  A    between atoms: _548  and  _550
REMARK  225  A    between atoms: _550  and  _551
REMARK  226  A    between atoms: _550  and  _553
REMARK  227  A    between atoms: _553  and  _554
REMARK                            x       y       z     vdW  Elec       q    Type
REMARK                         _______ _______ _______ _____ _____    ______ ____
ROOT
ATOM      1  CA  LEU A   1      16.747  12.709  -4.638  0.00  0.00    +0.133 C 
ENDROOT
BRANCH   1   2
ATOM      2  N   LEU A   1      17.667  13.599  -5.348  0.00  0.00    -0.239 NA
ATOM      3  H   LEU A   1      17.738  14.585  -5.025  0.00  0.00    +0.142 HD
ENDBRANCH   1   2
BRANCH   1   4
ATOM      4  C   LEU A   1      15.322  12.964  -5.173  0.00  0.00    +0.224 C 
ATOM      5  O   LEU A   1      14.951  14.092  -5.517  0.00  0.00    -0.287 OA
ENDBRANCH   1   4
BRANCH   1   6
ATOM      6  CB  LEU A   1      16.831  12.976  -3.099  0.00  0.00    +0.025 C 
BRANCH   6   7
ATOM      7  CG  LEU A   1      18.198  13.105  -2.416  0.00  0.00    +0.002 C 
ATOM      8  CD2 LEU A   1      17.951  13.417  -0.911  0.00  0.00    +0.000 C 
ATOM      9  CD1 LEU A   1      19.028  11.857  -2.604  0.00  0.00    +0.000 C 
ENDBRANCH   6   7
ENDBRANCH   1   6
TORSDOF 4
REMARK  Name = ../refined-set-2016/1hxw/1hxw_pocket.pdb
REMARK  227 active torsions:
REMARK  status: ('A' for Active; 'I' for Inactive)
REMARK    1  A    between atoms: _1  and  _3
REMARK    2  A    between atoms: _3  and  _4
REMARK    3  A    between atoms: _3  and  _6
REMARK    4  A    between atoms: _6  and  _7
REMARK    5  A    between atoms: _7  and  _8
REMARK    6  A    between atoms: _8  and  _9
REMARK    7  A    between atoms: _18  and  _20
REMARK    8  A    between atoms: _20  and  _21
REMARK    9  A    between atoms: _20  and  _23
REMARK   10  A    between atoms: _23  and  _24
REMARK   11  A    between atoms: _27  and  _29
REMARK   12  A    between atoms: _29  and  _30
REMARK   13  A    between atoms: _29  and  _32
REMARK   14  A    between atoms: _32  and  _33
REMARK   15  A    between atoms: _36  and  _38
REMARK   16  A    between atoms: _38  and  _39
REMARK   17  A    between atoms: _38  and  _41
REMARK   18  A    between atoms: _41  and  _42
REMARK   19  A    between atoms: _45  and  _47
REMARK   20  A    between atoms: _47  and  _48
REMARK   21  A    between atoms: _47  and  _50
REMARK   22  A    between atoms: _50  and  _51
REMARK   23  A    between atoms: _54  and  _56
REMARK   24  A    between atoms: _56  and  _57
REMARK   25  A    between atoms: _59  and  _61
REMARK   26  A    between atoms: _61  and  _62
REMARK   27  A    between atoms: _65  and  _67
REMARK   28  A    between atoms: _67  and  _68
REMARK   29  A    between atoms: _67  and  _70
REMARK   30  A    between atoms: _70  and  _71
REMARK   31  A    between atoms: _74  and  _76
REMARK   32  A    between atoms: _76  and  _77
REMARK   33  A    between atoms: _76  and  _79
REMARK   34  A    between atoms: _79  and  _80
REMARK   35  A    between atoms: _83  and  _85
REMARK   36  A    between atoms: _85  and  _86
REMARK   37  A    between atoms: _85  and  _88
REMARK   38  A    between atoms: _88  and  _89
REMARK   39  A    between atoms: _92  and  _94
REMARK   40  A    between atoms: _94  and  _95
REMARK   41  A    between atoms: _94  and  _97
REMARK   42  A    between atoms: _100  and  _102
REMARK   43  A    between atoms: _102  and  _103
REMARK   44  A    between atoms: _102  and  _105
REMARK   45  A    between atoms: _105  and  _106
REMARK   46  A    between atoms: _106  and  _107
REMARK   47  A    between atoms: _107  and  _108
REMARK   48  A    between atoms: _108  and  _109
REMARK   49  A    between atoms: _113  and  _115
REMARK   50  A    between atoms: _115  and  _116
REMARK   51  A    between atoms: _115  and  _118
REMARK   52  A    between atoms: _118  and  _119
REMARK   53  A    between atoms: _119  and  _120
REMARK   54  A    between atoms: _122  and  _124
REMARK   55  A    between atoms: _124  and  _125
REMARK   56  A    between atoms: _124  and  _127
REMARK   57  A    between atoms: _127  and  _128
REMARK   58  A    between atoms: _131  and  _133
REMARK   59  A    between atoms: _133  and  _134
REMARK   60  A    between atoms: _136  and  _138
REMARK   61  A    between atoms: _138  and  _139
REMARK   62  A    between atoms: _141  and  _143
REMARK   63  A    between atoms: _143  and  _144
REMARK   64  A    between atoms: _143  and  _146
REMARK   65  A    between atoms: _146  and  _147
REMARK   66  A    between atoms: _150  and  _152
REMARK   67  A    between atoms: _152  and  _153
REMARK   68  A    between atoms: _155  and  _157
REMARK   69  A    between atoms: _157  and  _158
REMARK   70  A    between atoms: _160  and  _162
REMARK   71  A    between atoms: _162  and  _163
REMARK   72  A    between atoms: _162  and  _165
REMARK   73  A    between atoms: _165  and  _166
REMARK   74  A    between atoms: _172  and  _174
REMARK   75  A    between atoms: _174  and  _175
REMARK   76  A    between atoms: _174  and  _177
REMARK   77  A    between atoms: _177  and  _178
REMARK   78  A    between atoms: _181  and  _183
REMARK   79  A    between atoms: _183  and  _184
REMARK   80  A    between atoms: _183  and  _186
REMARK   81  A    between atoms: _186  and  _187
REMARK   82  A    between atoms: _191  and  _192
REMARK   83  A    between atoms: _197  and  _199
REMARK   84  A    between atoms: _199  and  _200
REMARK   85  A    between atoms: _199  and  _202
REMARK   86  A    between atoms: _202  and  _203
REMARK   87  A    between atoms: _207  and  _208
REMARK   88  A    between atoms: _213  and  _215
REMARK   89  A    between atoms: _215  and  _216
REMARK   90  A    between atoms: _215  and  _218
REMARK   91  A    between atoms: _221  and  _223
REMARK   92  A    between atoms: _223  and  _224
REMARK   93  A    between atoms: _223  and  _226
REMARK   94  A    between atoms: _226  and  _227
REMARK   95  A    between atoms: _232  and  _234
REMARK   96  A    between atoms: _234  and  _235
REMARK   97  A    between atoms: _234  and  _237
REMARK   98  A    between atoms: _237  and  _238
REMARK   99  A    between atoms: _241  and  _243
REMARK  100  A    between atoms: _243  and  _244
REMARK  101  A    between atoms: _246  and  _248
REMARK  102  A    between atoms: _248  and  _249
REMARK  103  A    between atoms: _248  and  _251
REMARK  104  A    between atoms: _251  and  _252
REMARK  105  A    between atoms: _252  and  _253
REMARK  106  A    between atoms: _253  and  _254
REMARK  107  A    between atoms: _263  and  _265
REMARK  108  A    between atoms: _265  and  _266
REMARK  109  A    between atoms: _265  and  _268
REMARK  110  A    between atoms: _268  and  _269
REMARK  111  A    between atoms: _269  and  _270
REMARK  112  A    between atoms: _270  and  _271
REMARK  113  A    between atoms: _280  and  _282
REMARK  114  A    between atoms: _282  and  _283
REMARK  115  A    between atoms: _282  and  _285
REMARK  116  A    between atoms: _285  and  _286
REMARK  117  A    between atoms: _289  and  _291
REMARK  118  A    between atoms: _291  and  _292
REMARK  119  A    between atoms: _291  and  _294
REMARK  120  A    between atoms: _294  and  _295
REMARK  121  A    between atoms: _298  and  _300
REMARK  122  A    between atoms: _300  and  _301
REMARK  123  A    between atoms: _300  and  _303
REMARK  124  A    between atoms: _303  and  _304
REMARK  125  A    between atoms: _307  and  _309
REMARK  126  A    between atoms: _309  and  _310
REMARK  127  A    between atoms: _309  and  _312
REMARK  128  A    between atoms: _312  and  _313
REMARK  129  A    between atoms: _316  and  _318
REMARK  130  A    between atoms: _318  and  _319
REMARK  131  A    between atoms: _318  and  _321
REMARK  132  A    between atoms: _321  and  _322
REMARK  133  A    between atoms: _325  and  _327
REMARK  134  A    between atoms: _327  and  _328
REMARK  135  A    between atoms: _330  and  _332
REMARK  136  A    between atoms: _332  and  _333
REMARK  137  A    between atoms: _336  and  _338
REMARK  138  A    between atoms: _338  and  _339
REMARK  139  A    between atoms: _338  and  _341
REMARK  140  A    between atoms: _341  and  _342
REMARK  141  A    between atoms: _345  and  _347
REMARK  142  A    between atoms: _347  and  _348
REMARK  143  A    between atoms: _347  and  _350
REMARK  144  A    between atoms: _350  and  _351
REMARK  145  A    between atoms: _354  and  _356
REMARK  146  A    between atoms: _356  and  _357
REMARK  147  A    between atoms: _356  and  _359
REMARK  148  A    between atoms: _359  and  _360
REMARK  149  A    between atoms: _363  and  _365
REMARK  150  A    between atoms: _365  and  _366
REMARK  151  A    between atoms: _365  and  _368
REMARK  152  A    between atoms: _371  and  _373
REMARK  153  A    between atoms: _373  and  _374
REMARK  154  A    between atoms: _373  and  _376
REMARK  155  A    between atoms: _376  and  _377
REMARK  156  A    between atoms: _380  and  _382
REMARK  157  A    between atoms: _382  and  _383
REMARK  158  A    between atoms: _382  and  _385
REMARK  159  A    between atoms: _385  and  _386
REMARK  160  A    between atoms: _386  and  _387
REMARK  161  A    between atoms: _387  and  _388
REMARK  162  A    between atoms: _388  and  _389
REMARK  163  A    between atoms: _393  and  _395
REMARK  164  A    between atoms: _395  and  _396
REMARK  165  A    between atoms: _395  and  _398
REMARK  166  A    between atoms: _398  and  _399
REMARK  167  A    between atoms: _399  and  _400
REMARK  168  A    between atoms: _402  and  _404
REMARK  169  A    between atoms: _404  and  _405
REMARK  170  A    between atoms: _404  and  _407
REMARK  171  A    between atoms: _407  and  _408
REMARK  172  A    between atoms: _411  and  _413
REMARK  173  A    between atoms: _413  and  _414
REMARK  174  A    between atoms: _416  and  _418
REMARK  175  A    between atoms: _418  and  _419
REMARK  176  A    between atoms: _421  and  _423
REMARK  177  A    between atoms: _423  and  _424
REMARK  178  A    between atoms: _423  and  _426
REMARK  179  A    between atoms: _426  and  _427
REMARK  180  A    between atoms: _430  and  _432
REMARK  181  A    between atoms: _432  and  _433
REMARK  182  A    between atoms: _435  and  _437
REMARK  183  A    between atoms: _437  and  _438
REMARK  184  A    between atoms: _440  and  _442
REMARK  185  A    between atoms: _442  and  _443
REMARK  186  A    between atoms: _442  and  _445
REMARK  187  A    between atoms: _445  and  _446
REMARK  188  A    between atoms: _449  and  _451
REMARK  189  A    between atoms: _451  and  _452
REMARK  190  A    between atoms: _451  and  _454
REMARK  191  A    between atoms: _457  and  _459
REMARK  192  A    between atoms: _459  and  _460
REMARK  193  A    between atoms: _459  and  _462
REMARK  194  A    between atoms: _462  and  _463
REMARK  195  A    between atoms: _467  and  _468
REMARK  196  A    between atoms: _473  and  _475
REMARK  197  A    between atoms: _475  and  _476
REMARK  198  A    between atoms: _475  and  _478
REMARK  199  A    between atoms: _478  and  _479
REMARK  200  A    between atoms: _483  and  _484
REMARK  201  A    between atoms: _489  and  _491
REMARK  202  A    between atoms: _491  and  _492
REMARK  203  A    between atoms: _491  and  _494
REMARK  204  A    between atoms: _497  and  _499
REMARK  205  A    between atoms: _499  and  _500
REMARK  206  A    between atoms: _499  and  _502
REMARK  207  A    between atoms: _502  and  _503
REMARK  208  A    between atoms: _508  and  _510
REMARK  209  A    between atoms: _510  and  _511
REMARK  210  A    between atoms: _510  and  _513
REMARK  211  A    between atoms: _513  and  _514
REMARK  212  A    between atoms: _517  and  _519
REMARK  213  A    between atoms: _519  and  _520
REMARK  214  A    between atoms: _519  and  _522
REMARK  215  A    between atoms: _522  and  _523
REMARK  216  A    between atoms: _526  and  _528
REMARK  217  A    between atoms: _528  and  _529
REMARK  218  A    between atoms: _531  and  _533
REMARK  219  A    between atoms: _533  and  _534
REMARK  220  A    between atoms: _533  and  _536
REMARK  221  A    between atoms: _536  and  _537
REMARK  222  A    between atoms: _537  and  _538
REMARK  223  A    between atoms: _538  and  _539
REMARK  224  A    between atoms: _548  and  _550
REMARK  225  A    between atoms: _550  and  _551
REMARK  226  A    between atoms: _550  and  _553
REMARK  227  A    between atoms: _553  and  _554
REMARK                            x       y       z     vdW  Elec       q    Type
REMARK                         _______ _______ _______ _____ _____    ______ ____
ROOT
ATOM      1  CA  ILE A   6      14.109  22.054  -3.653  0.00  0.00    +0.149 C 
ENDROOT
BRANCH   1   2
ATOM      2  C   ILE A   6      15.504  21.848  -4.205  0.00  0.00    +0.241 C 
ATOM      3  O   ILE A   6      15.969  20.671  -4.252  0.00  0.00    -0.273 OA
ATOM      4  N   ILE A   7      16.214  22.938  -4.584  0.00  0.00    -0.297 N 
ATOM      5  H   ILE A   7      15.759  23.873  -4.591  0.00  0.00    +0.150 HD
BRANCH   4   6
ATOM      6  CA  ILE A   7      17.600  22.810  -4.979  0.00  0.00    +0.149 C 
BRANCH   6   7
ATOM      7  C   ILE A   7      18.415  22.986  -3.692  0.00  0.00    +0.241 C 
ATOM      8  O   ILE A   7      18.309  24.026  -3.065  0.00  0.00    -0.273 OA
ATOM      9  N   GLY A   8      19.216  22.037  -3.206  0.00  0.00    -0.295 N 
ATOM     10  H   GLY A   8      19.370  21.168  -3.756  0.00  0.00    +0.150 HD
BRANCH   9  11
ATOM     11  CA  GLY A   8      19.867  22.194  -1.941  0.00  0.00    +0.176 C 
BRANCH  11  12
ATOM     12  C   GLY A   8      21.307  22.463  -2.167  0.00  0.00    +0.243 C 
ATOM     13  N   ARG A   9      22.094  22.441  -1.123  0.00  0.00    -0.297 N 
ATOM     14  H   ARG A   9      21.709  22.116  -0.213  0.00  0.00    +0.150 HD
ATOM     15  O   GLY A   8      21.766  22.658  -3.287  0.00  0.00    -0.273 OA
BRANCH  13  16
ATOM     16  CA  ARG A   9      23.471  22.849  -1.184  0.00  0.00    +0.149 C 
BRANCH  16  17
ATOM     17  C   ARG A   9      24.357  22.126  -2.108  0.00  0.00    +0.241 C 
ATOM     18  N   ASN A  10      24.077  20.876  -2.361  0.00  0.00    -0.298 N 
ATOM     19  H   ASN A  10      23.245  20.421  -1.934  0.00  0.00    +0.150 HD
ATOM     20  O   ARG A   9      25.313  22.674  -2.657  0.00  0.00    -0.273 OA
BRANCH  18  21
ATOM     21  CA  ASN A  10      24.961  20.126  -3.261  0.00  0.00    +0.146 C 
BRANCH  21  22
ATOM     22  C   ASN A  10      24.997  20.751  -4.664  0.00  0.00    +0.227 C 
ATOM     23  O   ASN A  10      26.044  20.725  -5.306  0.00  0.00    -0.286 OA
ENDBRANCH  21  22
BRANCH  21  24
ATOM     24  CB  ASN A  10      24.485  18.627  -3.338  0.00  0.00    +0.112 C 
BRANCH  24  25
ATOM     25  CG  ASN A  10      23.188  18.358  -4.078  0.00  0.00    +0.222 C 
ATOM     26  OD1 ASN A  10      22.140  18.921  -3.781  0.00  0.00    -0.275 OA
ATOM     27  ND2 ASN A  10      23.213  17.497  -5.082  0.00  0.00    -0.329 N 
ATOM     28 HD21 ASN A  10      24.101  17.019  -5.335  0.00  0.00    +0.145 HD
ATOM     29 HD22 ASN A  10      22.344  17.298  -5.618  0.00  0.00    +0.145 HD
ENDBRANCH  24  25
ENDBRANCH  21  24
ENDBRANCH  18  21
ENDBRANCH  16  17
BRANCH  16  30
ATOM     30  CB  ARG A   9      24.019  22.772   0.180  0.00  0.00    +0.033 C 
BRANCH  30  31
ATOM     31  CG  ARG A   9      23.342  23.805   1.090  0.00  0.00    +0.045 C 
BRANCH  31  32
ATOM     32  CD  ARG A   9      24.030  23.876   2.404  0.00  0.00    +0.174 C 
BRANCH  32  33
ATOM     33  NE  ARG A   9      24.067  22.617   3.134  0.00  0.00    -0.265 N 
ATOM     34  HE  ARG A   9      23.208  22.356   3.659  0.00  0.00    +0.259 HD
ATOM     35  CZ  ARG A   9      25.104  21.753   3.199  0.00  0.00    +0.342 C 
ATOM     36  NH2 ARG A   9      24.995  20.653   3.902  0.00  0.00    -0.292 N 
ATOM     37 HH21 ARG A   9      24.111  20.445   4.409  0.00  0.00    +0.255 HD
ATOM     38 HH22 ARG A   9      25.792  19.987   3.953  0.00  0.00    +0.255 HD
ATOM     39  NH1 ARG A   9      26.263  21.911   2.601  0.00  0.00    -0.292 N 
ATOM     40 HH11 ARG A   9      27.006  21.191   2.708  0.00  0.00    +0.255 HD
ATOM     41 HH12 ARG A   9      26.438  22.756   2.021  0.00  0.00    +0.255 HD
ENDBRANCH  32  33
ENDBRANCH  31  32
ENDBRANCH  30  31
ENDBRANCH  16  30
ENDBRANCH  13  16
ENDBRANCH  11  12
ENDBRANCH   9  11
ENDBRANCH   6   7
BRANCH   6  42
ATOM     42  CB  ILE A   7      17.960  23.874  -6.051  0.00  0.00    +0.027 C 
ATOM     43  CG2 ILE A   7      19.430  23.705  -6.414  0.00  0.00    +0.002 C 
BRANCH  42  44
ATOM     44  CG1 ILE A   7      17.066  23.726  -7.314  0.00  0.00    +0.002 C 
ATOM     45  CD1 ILE A   7      16.962  22.303  -7.963  0.00  0.00    +0.000 C 
ENDBRANCH  42  44
ENDBRANCH   6  42
ENDBRANCH   4   6
ENDBRANCH   1   2
BRANCH   1  47
ATOM     46  C   ASN A   5      12.160  21.809  -5.113  0.00  0.00    +0.241 C 
ATOM     47  N   ILE A   6      13.187  21.307  -4.462  0.00  0.00    -0.297 N 
ATOM     48  H   ILE A   6      13.345  20.282  -4.540  0.00  0.00    +0.150 HD
ATOM     49  O   ASN A   5      11.894  23.014  -5.069  0.00  0.00    -0.273 OA
BRANCH  46  50
ATOM     50  CA  ASN A   5      11.243  20.905  -5.886  0.00  0.00    +0.158 C 
BRANCH  50  53
ATOM     51  C   VAL A   4       9.350  20.963  -4.341  0.00  0.00    +0.241 C 
ATOM     52  O   VAL A   4       9.934  20.191  -3.604  0.00  0.00    -0.273 OA
ATOM     53  N   ASN A   5       9.947  21.359  -5.468  0.00  0.00    -0.297 N 
ATOM     54  H   ASN A   5       9.444  22.035  -6.078  0.00  0.00    +0.150 HD
BRANCH  51  55
ATOM     55  CA  VAL A   4       8.034  21.544  -3.880  0.00  0.00    +0.149 C 
BRANCH  55  57
ATOM     56  C   PRO A   3       6.080  20.126  -3.277  0.00  0.00    +0.241 C 
ATOM     57  N   VAL A   4       7.388  20.399  -3.221  0.00  0.00    -0.297 N 
ATOM     58  H   VAL A   4       7.992  19.755  -2.672  0.00  0.00    +0.150 HD
ATOM     59  O   PRO A   3       5.313  20.850  -3.900  0.00  0.00    -0.273 OA
BRANCH  56  65
ATOM     60  C   THR A   2       7.073  17.107  -2.501  0.00  0.00    +0.246 C 
ATOM     61  N   PRO A   3       6.394  18.059  -1.876  0.00  0.00    -0.272 N 
ATOM     62  CD  PRO A   3       6.393  18.251  -0.436  0.00  0.00    +0.094 C 
ATOM     63  CG  PRO A   3       5.412  19.381  -0.320  0.00  0.00    +0.024 C 
ATOM     64  CB  PRO A   3       4.550  19.325  -1.536  0.00  0.00    +0.031 C 
ATOM     65  CA  PRO A   3       5.479  18.932  -2.572  0.00  0.00    +0.152 C 
ATOM     66  O   THR A   2       6.796  16.790  -3.676  0.00  0.00    -0.273 OA
BRANCH  60  67
ATOM     67  CA  THR A   2       8.125  16.415  -1.633  0.00  0.00    +0.176 C 
BRANCH  67  70
ATOM     68  C   PRO A   1       7.271  14.209  -1.369  0.00  0.00    +0.239 C 
ATOM     69  O   PRO A   1       6.641  14.581  -0.359  0.00  0.00    -0.274 OA
ATOM     70  N   THR A   2       8.004  15.066  -2.066  0.00  0.00    -0.295 N 
ATOM     71  H   THR A   2       8.491  14.752  -2.930  0.00  0.00    +0.150 HD
BRANCH  68  76
ATOM     72  N   PRO A   1       8.430  12.129  -2.186  0.00  0.00    -0.210 NA
ATOM     73  CD  PRO A   1       8.468  10.953  -1.332  0.00  0.00    +0.089 C 
ATOM     74  CG  PRO A   1       7.271  11.100  -0.387  0.00  0.00    +0.021 C 
ATOM     75  CB  PRO A   1       6.317  11.828  -1.290  0.00  0.00    +0.028 C 
ATOM     76  CA  PRO A   1       7.179  12.835  -2.026  0.00  0.00    +0.149 C 
ENDBRANCH  68  76
ENDBRANCH  67  70
BRANCH  67  77
ATOM     77  CB  THR A   2       9.522  16.934  -1.904  0.00  0.00    +0.137 C 
ATOM     78  CG2 THR A   2      10.030  16.885  -3.330  0.00  0.00    +0.034 C 
BRANCH  77  79
ATOM     79  OG1 THR A   2       9.352  18.271  -1.478  0.00  0.00    -0.382 OA
ATOM     80  HG1 THR A   2      10.203  18.764  -1.594  0.00  0.00    +0.210 HD
ENDBRANCH  77  79
ENDBRANCH  67  77
ENDBRANCH  60  67
ENDBRANCH  56  65
ENDBRANCH  55  57
BRANCH  55  81
ATOM     81  CB  VAL A   4       8.582  22.756  -3.047  0.00  0.00    +0.027 C 
ATOM     82  CG2 VAL A   4       8.357  22.487  -1.613  0.00  0.00    +0.002 C 
ATOM     83  CG1 VAL A   4       8.109  24.070  -3.690  0.00  0.00    +0.002 C 
ENDBRANCH  55  81
ENDBRANCH  51  55
ENDBRANCH  50  53
BRANCH  50  84
ATOM     84  CB  ASN A   5      11.429  21.125  -7.386  0.00  0.00    +0.114 C 
BRANCH  84  85
ATOM     85  CG  ASN A   5      10.475  20.229  -8.155  0.00  0.00    +0.222 C 
ATOM     86  OD1 ASN A   5      10.417  19.000  -7.964  0.00  0.00    -0.275 OA
ATOM     87  ND2 ASN A   5       9.650  20.831  -9.001  0.00  0.00    -0.329 N 
ATOM     88 HD21 ASN A   5       9.714  21.859  -9.147  0.00  0.00    +0.145 HD
ATOM     89 HD22 ASN A   5       8.939  20.275  -9.518  0.00  0.00    +0.145 HD
ENDBRANCH  84  85
ENDBRANCH  50  84
ENDBRANCH  46  50
ENDBRANCH   1  47
BRANCH   1  90
ATOM     90  CB  ILE A   6      13.937  21.477  -2.250  0.00  0.00    +0.027 C 
ATOM     91  CG2 ILE A   6      15.112  21.931  -1.447  0.00  0.00    +0.002 C 
BRANCH  90  92
ATOM     92  CG1 ILE A   6      12.602  21.870  -1.617  0.00  0.00    +0.002 C 
ATOM     93  CD1 ILE A   6      12.305  20.802  -0.570  0.00  0.00    +0.000 C 
ENDBRANCH  90  92
ENDBRANCH   1  90
TORSDOF 33
REMARK  Name = ../refined-set-2016/1hxw/1hxw_pocket.pdb
REMARK  227 active torsions:
REMARK  status: ('A' for Active; 'I' for Inactive)
REMARK    1  A    between atoms: _1  and  _3
REMARK    2  A    between atoms: _3  and  _4
REMARK    3  A    between atoms: _3  and  _6
REMARK    4  A    between atoms: _6  and  _7
REMARK    5  A    between atoms: _7  and  _8
REMARK    6  A    between atoms: _8  and  _9
REMARK    7  A    between atoms: _18  and  _20
REMARK    8  A    between atoms: _20  and  _21
REMARK    9  A    between atoms: _20  and  _23
REMARK   10  A    between atoms: _23  and  _24
REMARK   11  A    between atoms: _27  and  _29
REMARK   12  A    between atoms: _29  and  _30
REMARK   13  A    between atoms: _29  and  _32
REMARK   14  A    between atoms: _32  and  _33
REMARK   15  A    between atoms: _36  and  _38
REMARK   16  A    between atoms: _38  and  _39
REMARK   17  A    between atoms: _38  and  _41
REMARK   18  A    between atoms: _41  and  _42
REMARK   19  A    between atoms: _45  and  _47
REMARK   20  A    between atoms: _47  and  _48
REMARK   21  A    between atoms: _47  and  _50
REMARK   22  A    between atoms: _50  and  _51
REMARK   23  A    between atoms: _54  and  _56
REMARK   24  A    between atoms: _56  and  _57
REMARK   25  A    between atoms: _59  and  _61
REMARK   26  A    between atoms: _61  and  _62
REMARK   27  A    between atoms: _65  and  _67
REMARK   28  A    between atoms: _67  and  _68
REMARK   29  A    between atoms: _67  and  _70
REMARK   30  A    between atoms: _70  and  _71
REMARK   31  A    between atoms: _74  and  _76
REMARK   32  A    between atoms: _76  and  _77
REMARK   33  A    between atoms: _76  and  _79
REMARK   34  A    between atoms: _79  and  _80
REMARK   35  A    between atoms: _83  and  _85
REMARK   36  A    between atoms: _85  and  _86
REMARK   37  A    between atoms: _85  and  _88
REMARK   38  A    between atoms: _88  and  _89
REMARK   39  A    between atoms: _92  and  _94
REMARK   40  A    between atoms: _94  and  _95
REMARK   41  A    between atoms: _94  and  _97
REMARK   42  A    between atoms: _100  and  _102
REMARK   43  A    between atoms: _102  and  _103
REMARK   44  A    between atoms: _102  and  _105
REMARK   45  A    between atoms: _105  and  _106
REMARK   46  A    between atoms: _106  and  _107
REMARK   47  A    between atoms: _107  and  _108
REMARK   48  A    between atoms: _108  and  _109
REMARK   49  A    between atoms: _113  and  _115
REMARK   50  A    between atoms: _115  and  _116
REMARK   51  A    between atoms: _115  and  _118
REMARK   52  A    between atoms: _118  and  _119
REMARK   53  A    between atoms: _119  and  _120
REMARK   54  A    between atoms: _122  and  _124
REMARK   55  A    between atoms: _124  and  _125
REMARK   56  A    between atoms: _124  and  _127
REMARK   57  A    between atoms: _127  and  _128
REMARK   58  A    between atoms: _131  and  _133
REMARK   59  A    between atoms: _133  and  _134
REMARK   60  A    between atoms: _136  and  _138
REMARK   61  A    between atoms: _138  and  _139
REMARK   62  A    between atoms: _141  and  _143
REMARK   63  A    between atoms: _143  and  _144
REMARK   64  A    between atoms: _143  and  _146
REMARK   65  A    between atoms: _146  and  _147
REMARK   66  A    between atoms: _150  and  _152
REMARK   67  A    between atoms: _152  and  _153
REMARK   68  A    between atoms: _155  and  _157
REMARK   69  A    between atoms: _157  and  _158
REMARK   70  A    between atoms: _160  and  _162
REMARK   71  A    between atoms: _162  and  _163
REMARK   72  A    between atoms: _162  and  _165
REMARK   73  A    between atoms: _165  and  _166
REMARK   74  A    between atoms: _172  and  _174
REMARK   75  A    between atoms: _174  and  _175
REMARK   76  A    between atoms: _174  and  _177
REMARK   77  A    between atoms: _177  and  _178
REMARK   78  A    between atoms: _181  and  _183
REMARK   79  A    between atoms: _183  and  _184
REMARK   80  A    between atoms: _183  and  _186
REMARK   81  A    between atoms: _186  and  _187
REMARK   82  A    between atoms: _191  and  _192
REMARK   83  A    between atoms: _197  and  _199
REMARK   84  A    between atoms: _199  and  _200
REMARK   85  A    between atoms: _199  and  _202
REMARK   86  A    between atoms: _202  and  _203
REMARK   87  A    between atoms: _207  and  _208
REMARK   88  A    between atoms: _213  and  _215
REMARK   89  A    between atoms: _215  and  _216
REMARK   90  A    between atoms: _215  and  _218
REMARK   91  A    between atoms: _221  and  _223
REMARK   92  A    between atoms: _223  and  _224
REMARK   93  A    between atoms: _223  and  _226
REMARK   94  A    between atoms: _226  and  _227
REMARK   95  A    between atoms: _232  and  _234
REMARK   96  A    between atoms: _234  and  _235
REMARK   97  A    between atoms: _234  and  _237
REMARK   98  A    between atoms: _237  and  _238
REMARK   99  A    between atoms: _241  and  _243
REMARK  100  A    between atoms: _243  and  _244
REMARK  101  A    between atoms: _246  and  _248
REMARK  102  A    between atoms: _248  and  _249
REMARK  103  A    between atoms: _248  and  _251
REMARK  104  A    between atoms: _251  and  _252
REMARK  105  A    between atoms: _252  and  _253
REMARK  106  A    between atoms: _253  and  _254
REMARK  107  A    between atoms: _263  and  _265
REMARK  108  A    between atoms: _265  and  _266
REMARK  109  A    between atoms: _265  and  _268
REMARK  110  A    between atoms: _268  and  _269
REMARK  111  A    between atoms: _269  and  _270
REMARK  112  A    between atoms: _270  and  _271
REMARK  113  A    between atoms: _280  and  _282
REMARK  114  A    between atoms: _282  and  _283
REMARK  115  A    between atoms: _282  and  _285
REMARK  116  A    between atoms: _285  and  _286
REMARK  117  A    between atoms: _289  and  _291
REMARK  118  A    between atoms: _291  and  _292
REMARK  119  A    between atoms: _291  and  _294
REMARK  120  A    between atoms: _294  and  _295
REMARK  121  A    between atoms: _298  and  _300
REMARK  122  A    between atoms: _300  and  _301
REMARK  123  A    between atoms: _300  and  _303
REMARK  124  A    between atoms: _303  and  _304
REMARK  125  A    between atoms: _307  and  _309
REMARK  126  A    between atoms: _309  and  _310
REMARK  127  A    between atoms: _309  and  _312
REMARK  128  A    between atoms: _312  and  _313
REMARK  129  A    between atoms: _316  and  _318
REMARK  130  A    between atoms: _318  and  _319
REMARK  131  A    between atoms: _318  and  _321
REMARK  132  A    between atoms: _321  and  _322
REMARK  133  A    between atoms: _325  and  _327
REMARK  134  A    between atoms: _327  and  _328
REMARK  135  A    between atoms: _330  and  _332
REMARK  136  A    between atoms: _332  and  _333
REMARK  137  A    between atoms: _336  and  _338
REMARK  138  A    between atoms: _338  and  _339
REMARK  139  A    between atoms: _338  and  _341
REMARK  140  A    between atoms: _341  and  _342
REMARK  141  A    between atoms: _345  and  _347
REMARK  142  A    between atoms: _347  and  _348
REMARK  143  A    between atoms: _347  and  _350
REMARK  144  A    between atoms: _350  and  _351
REMARK  145  A    between atoms: _354  and  _356
REMARK  146  A    between atoms: _356  and  _357
REMARK  147  A    between atoms: _356  and  _359
REMARK  148  A    between atoms: _359  and  _360
REMARK  149  A    between atoms: _363  and  _365
REMARK  150  A    between atoms: _365  and  _366
REMARK  151  A    between atoms: _365  and  _368
REMARK  152  A    between atoms: _371  and  _373
REMARK  153  A    between atoms: _373  and  _374
REMARK  154  A    between atoms: _373  and  _376
REMARK  155  A    between atoms: _376  and  _377
REMARK  156  A    between atoms: _380  and  _382
REMARK  157  A    between atoms: _382  and  _383
REMARK  158  A    between atoms: _382  and  _385
REMARK  159  A    between atoms: _385  and  _386
REMARK  160  A    between atoms: _386  and  _387
REMARK  161  A    between atoms: _387  and  _388
REMARK  162  A    between atoms: _388  and  _389
REMARK  163  A    between atoms: _393  and  _395
REMARK  164  A    between atoms: _395  and  _396
REMARK  165  A    between atoms: _395  and  _398
REMARK  166  A    between atoms: _398  and  _399
REMARK  167  A    between atoms: _399  and  _400
REMARK  168  A    between atoms: _402  and  _404
REMARK  169  A    between atoms: _404  and  _405
REMARK  170  A    between atoms: _404  and  _407
REMARK  171  A    between atoms: _407  and  _408
REMARK  172  A    between atoms: _411  and  _413
REMARK  173  A    between atoms: _413  and  _414
REMARK  174  A    between atoms: _416  and  _418
REMARK  175  A    between atoms: _418  and  _419
REMARK  176  A    between atoms: _421  and  _423
REMARK  177  A    between atoms: _423  and  _424
REMARK  178  A    between atoms: _423  and  _426
REMARK  179  A    between atoms: _426  and  _427
REMARK  180  A    between atoms: _430  and  _432
REMARK  181  A    between atoms: _432  and  _433
REMARK  182  A    between atoms: _435  and  _437
REMARK  183  A    between atoms: _437  and  _438
REMARK  184  A    between atoms: _440  and  _442
REMARK  185  A    between atoms: _442  and  _443
REMARK  186  A    between atoms: _442  and  _445
REMARK  187  A    between atoms: _445  and  _446
REMARK  188  A    between atoms: _449  and  _451
REMARK  189  A    between atoms: _451  and  _452
REMARK  190  A    between atoms: _451  and  _454
REMARK  191  A    between atoms: _457  and  _459
REMARK  192  A    between atoms: _459  and  _460
REMARK  193  A    between atoms: _459  and  _462
REMARK  194  A    between atoms: _462  and  _463
REMARK  195  A    between atoms: _467  and  _468
REMARK  196  A    between atoms: _473  and  _475
REMARK  197  A    between atoms: _475  and  _476
REMARK  198  A    between atoms: _475  and  _478
REMARK  199  A    between atoms: _478  and  _479
REMARK  200  A    between atoms: _483  and  _484
REMARK  201  A    between atoms: _489  and  _491
REMARK  202  A    between atoms: _491  and  _492
REMARK  203  A    between atoms: _491  and  _494
REMARK  204  A    between atoms: _497  and  _499
REMARK  205  A    between atoms: _499  and  _500
REMARK  206  A    between atoms: _499  and  _502
REMARK  207  A    between atoms: _502  and  _503
REMARK  208  A    between atoms: _508  and  _510
REMARK  209  A    between atoms: _510  and  _511
REMARK  210  A    between atoms: _510  and  _513
REMARK  211  A    between atoms: _513  and  _514
REMARK  212  A    between atoms: _517  and  _519
REMARK  213  A    between atoms: _519  and  _520
REMARK  214  A    between atoms: _519  and  _522
REMARK  215  A    between atoms: _522  and  _523
REMARK  216  A    between atoms: _526  and  _528
REMARK  217  A    between atoms: _528  and  _529
REMARK  218  A    between atoms: _531  and  _533
REMARK  219  A    between atoms: _533  and  _534
REMARK  220  A    between atoms: _533  and  _536
REMARK  221  A    between atoms: _536  and  _537
REMARK  222  A    between atoms: _537  and  _538
REMARK  223  A    between atoms: _538  and  _539
REMARK  224  A    between atoms: _548  and  _550
REMARK  225  A    between atoms: _550  and  _551
REMARK  226  A    between atoms: _550  and  _553
REMARK  227  A    between atoms: _553  and  _554
REMARK                            x       y       z     vdW  Elec       q    Type
REMARK                         _______ _______ _______ _____ _____    ______ ____
ROOT
ATOM      1  O   HOH     1       9.545  28.751   1.862  0.00  0.00    +0.000 OA
ENDROOT
TORSDOF 0
REMARK  Name = ../refined-set-2016/1hxw/1hxw_pocket.pdb
REMARK  227 active torsions:
REMARK  status: ('A' for Active; 'I' for Inactive)
REMARK    1  A    between atoms: _1  and  _3
REMARK    2  A    between atoms: _3  and  _4
REMARK    3  A    between atoms: _3  and  _6
REMARK    4  A    between atoms: _6  and  _7
REMARK    5  A    between atoms: _7  and  _8
REMARK    6  A    between atoms: _8  and  _9
REMARK    7  A    between atoms: _18  and  _20
REMARK    8  A    between atoms: _20  and  _21
REMARK    9  A    between atoms: _20  and  _23
REMARK   10  A    between atoms: _23  and  _24
REMARK   11  A    between atoms: _27  and  _29
REMARK   12  A    between atoms: _29  and  _30
REMARK   13  A    between atoms: _29  and  _32
REMARK   14  A    between atoms: _32  and  _33
REMARK   15  A    between atoms: _36  and  _38
REMARK   16  A    between atoms: _38  and  _39
REMARK   17  A    between atoms: _38  and  _41
REMARK   18  A    between atoms: _41  and  _42
REMARK   19  A    between atoms: _45  and  _47
REMARK   20  A    between atoms: _47  and  _48
REMARK   21  A    between atoms: _47  and  _50
REMARK   22  A    between atoms: _50  and  _51
REMARK   23  A    between atoms: _54  and  _56
REMARK   24  A    between atoms: _56  and  _57
REMARK   25  A    between atoms: _59  and  _61
REMARK   26  A    between atoms: _61  and  _62
REMARK   27  A    between atoms: _65  and  _67
REMARK   28  A    between atoms: _67  and  _68
REMARK   29  A    between atoms: _67  and  _70
REMARK   30  A    between atoms: _70  and  _71
REMARK   31  A    between atoms: _74  and  _76
REMARK   32  A    between atoms: _76  and  _77
REMARK   33  A    between atoms: _76  and  _79
REMARK   34  A    between atoms: _79  and  _80
REMARK   35  A    between atoms: _83  and  _85
REMARK   36  A    between atoms: _85  and  _86
REMARK   37  A    between atoms: _85  and  _88
REMARK   38  A    between atoms: _88  and  _89
REMARK   39  A    between atoms: _92  and  _94
REMARK   40  A    between atoms: _94  and  _95
REMARK   41  A    between atoms: _94  and  _97
REMARK   42  A    between atoms: _100  and  _102
REMARK   43  A    between atoms: _102  and  _103
REMARK   44  A    between atoms: _102  and  _105
REMARK   45  A    between atoms: _105  and  _106
REMARK   46  A    between atoms: _106  and  _107
REMARK   47  A    between atoms: _107  and  _108
REMARK   48  A    between atoms: _108  and  _109
REMARK   49  A    between atoms: _113  and  _115
REMARK   50  A    between atoms: _115  and  _116
REMARK   51  A    between atoms: _115  and  _118
REMARK   52  A    between atoms: _118  and  _119
REMARK   53  A    between atoms: _119  and  _120
REMARK   54  A    between atoms: _122  and  _124
REMARK   55  A    between atoms: _124  and  _125
REMARK   56  A    between atoms: _124  and  _127
REMARK   57  A    between atoms: _127  and  _128
REMARK   58  A    between atoms: _131  and  _133
REMARK   59  A    between atoms: _133  and  _134
REMARK   60  A    between atoms: _136  and  _138
REMARK   61  A    between atoms: _138  and  _139
REMARK   62  A    between atoms: _141  and  _143
REMARK   63  A    between atoms: _143  and  _144
REMARK   64  A    between atoms: _143  and  _146
REMARK   65  A    between atoms: _146  and  _147
REMARK   66  A    between atoms: _150  and  _152
REMARK   67  A    between atoms: _152  and  _153
REMARK   68  A    between atoms: _155  and  _157
REMARK   69  A    between atoms: _157  and  _158
REMARK   70  A    between atoms: _160  and  _162
REMARK   71  A    between atoms: _162  and  _163
REMARK   72  A    between atoms: _162  and  _165
REMARK   73  A    between atoms: _165  and  _166
REMARK   74  A    between atoms: _172  and  _174
REMARK   75  A    between atoms: _174  and  _175
REMARK   76  A    between atoms: _174  and  _177
REMARK   77  A    between atoms: _177  and  _178
REMARK   78  A    between atoms: _181  and  _183
REMARK   79  A    between atoms: _183  and  _184
REMARK   80  A    between atoms: _183  and  _186
REMARK   81  A    between atoms: _186  and  _187
REMARK   82  A    between atoms: _191  and  _192
REMARK   83  A    between atoms: _197  and  _199
REMARK   84  A    between atoms: _199  and  _200
REMARK   85  A    between atoms: _199  and  _202
REMARK   86  A    between atoms: _202  and  _203
REMARK   87  A    between atoms: _207  and  _208
REMARK   88  A    between atoms: _213  and  _215
REMARK   89  A    between atoms: _215  and  _216
REMARK   90  A    between atoms: _215  and  _218
REMARK   91  A    between atoms: _221  and  _223
REMARK   92  A    between atoms: _223  and  _224
REMARK   93  A    between atoms: _223  and  _226
REMARK   94  A    between atoms: _226  and  _227
REMARK   95  A    between atoms: _232  and  _234
REMARK   96  A    between atoms: _234  and  _235
REMARK   97  A    between atoms: _234  and  _237
REMARK   98  A    between atoms: _237  and  _238
REMARK   99  A    between atoms: _241  and  _243
REMARK  100  A    between atoms: _243  and  _244
REMARK  101  A    between atoms: _246  and  _248
REMARK  102  A    between atoms: _248  and  _249
REMARK  103  A    between atoms: _248  and  _251
REMARK  104  A    between atoms: _251  and  _252
REMARK  105  A    between atoms: _252  and  _253
REMARK  106  A    between atoms: _253  and  _254
REMARK  107  A    between atoms: _263  and  _265
REMARK  108  A    between atoms: _265  and  _266
REMARK  109  A    between atoms: _265  and  _268
REMARK  110  A    between atoms: _268  and  _269
REMARK  111  A    between atoms: _269  and  _270
REMARK  112  A    between atoms: _270  and  _271
REMARK  113  A    between atoms: _280  and  _282
REMARK  114  A    between atoms: _282  and  _283
REMARK  115  A    between atoms: _282  and  _285
REMARK  116  A    between atoms: _285  and  _286
REMARK  117  A    between atoms: _289  and  _291
REMARK  118  A    between atoms: _291  and  _292
REMARK  119  A    between atoms: _291  and  _294
REMARK  120  A    between atoms: _294  and  _295
REMARK  121  A    between atoms: _298  and  _300
REMARK  122  A    between atoms: _300  and  _301
REMARK  123  A    between atoms: _300  and  _303
REMARK  124  A    between atoms: _303  and  _304
REMARK  125  A    between atoms: _307  and  _309
REMARK  126  A    between atoms: _309  and  _310
REMARK  127  A    between atoms: _309  and  _312
REMARK  128  A    between atoms: _312  and  _313
REMARK  129  A    between atoms: _316  and  _318
REMARK  130  A    between atoms: _318  and  _319
REMARK  131  A    between atoms: _318  and  _321
REMARK  132  A    between atoms: _321  and  _322
REMARK  133  A    between atoms: _325  and  _327
REMARK  134  A    between atoms: _327  and  _328
REMARK  135  A    between atoms: _330  and  _332
REMARK  136  A    between atoms: _332  and  _333
REMARK  137  A    between atoms: _336  and  _338
REMARK  138  A    between atoms: _338  and  _339
REMARK  139  A    between atoms: _338  and  _341
REMARK  140  A    between atoms: _341  and  _342
REMARK  141  A    between atoms: _345  and  _347
REMARK  142  A    between atoms: _347  and  _348
REMARK  143  A    between atoms: _347  and  _350
REMARK  144  A    between atoms: _350  and  _351
REMARK  145  A    between atoms: _354  and  _356
REMARK  146  A    between atoms: _356  and  _357
REMARK  147  A    between atoms: _356  and  _359
REMARK  148  A    between atoms: _359  and  _360
REMARK  149  A    between atoms: _363  and  _365
REMARK  150  A    between atoms: _365  and  _366
REMARK  151  A    between atoms: _365  and  _368
REMARK  152  A    between atoms: _371  and  _373
REMARK  153  A    between atoms: _373  and  _374
REMARK  154  A    between atoms: _373  and  _376
REMARK  155  A    between atoms: _376  and  _377
REMARK  156  A    between atoms: _380  and  _382
REMARK  157  A    between atoms: _382  and  _383
REMARK  158  A    between atoms: _382  and  _385
REMARK  159  A    between atoms: _385  and  _386
REMARK  160  A    between atoms: _386  and  _387
REMARK  161  A    between atoms: _387  and  _388
REMARK  162  A    between atoms: _388  and  _389
REMARK  163  A    between atoms: _393  and  _395
REMARK  164  A    between atoms: _395  and  _396
REMARK  165  A    between atoms: _395  and  _398
REMARK  166  A    between atoms: _398  and  _399
REMARK  167  A    between atoms: _399  and  _400
REMARK  168  A    between atoms: _402  and  _404
REMARK  169  A    between atoms: _404  and  _405
REMARK  170  A    between atoms: _404  and  _407
REMARK  171  A    between atoms: _407  and  _408
REMARK  172  A    between atoms: _411  and  _413
REMARK  173  A    between atoms: _413  and  _414
REMARK  174  A    between atoms: _416  and  _418
REMARK  175  A    between atoms: _418  and  _419
REMARK  176  A    between atoms: _421  and  _423
REMARK  177  A    between atoms: _423  and  _424
REMARK  178  A    between atoms: _423  and  _426
REMARK  179  A    between atoms: _426  and  _427
REMARK  180  A    between atoms: _430  and  _432
REMARK  181  A    between atoms: _432  and  _433
REMARK  182  A    between atoms: _435  and  _437
REMARK  183  A    between atoms: _437  and  _438
REMARK  184  A    between atoms: _440  and  _442
REMARK  185  A    between atoms: _442  and  _443
REMARK  186  A    between atoms: _442  and  _445
REMARK  187  A    between atoms: _445  and  _446
REMARK  188  A    between atoms: _449  and  _451
REMARK  189  A    between atoms: _451  and  _452
REMARK  190  A    between atoms: _451  and  _454
REMARK  191  A    between atoms: _457  and  _459
REMARK  192  A    between atoms: _459  and  _460
REMARK  193  A    between atoms: _459  and  _462
REMARK  194  A    between atoms: _462  and  _463
REMARK  195  A    between atoms: _467  and  _468
REMARK  196  A    between atoms: _473  and  _475
REMARK  197  A    between atoms: _475  and  _476
REMARK  198  A    between atoms: _475  and  _478
REMARK  199  A    between atoms: _478  and  _479
REMARK  200  A    between atoms: _483  and  _484
REMARK  201  A    between atoms: _489  and  _491
REMARK  202  A    between atoms: _491  and  _492
REMARK  203  A    between atoms: _491  and  _494
REMARK  204  A    between atoms: _497  and  _499
REMARK  205  A    between atoms: _499  and  _500
REMARK  206  A    between atoms: _499  and  _502
REMARK  207  A    between atoms: _502  and  _503
REMARK  208  A    between atoms: _508  and  _510
REMARK  209  A    between atoms: _510  and  _511
REMARK  210  A    between atoms: _510  and  _513
REMARK  211  A    between atoms: _513  and  _514
REMARK  212  A    between atoms: _517  and  _519
REMARK  213  A    between atoms: _519  and  _520
REMARK  214  A    between atoms: _519  and  _522
REMARK  215  A    between atoms: _522  and  _523
REMARK  216  A    between atoms: _526  and  _528
REMARK  217  A    between atoms: _528  and  _529
REMARK  218  A    between atoms: _531  and  _533
REMARK  219  A    between atoms: _533  and  _534
REMARK  220  A    between atoms: _533  and  _536
REMARK  221  A    between atoms: _536  and  _537
REMARK  222  A    between atoms: _537  and  _538
REMARK  223  A    between atoms: _538  and  _539
REMARK  224  A    between atoms: _548  and  _550
REMARK  225  A    between atoms: _550  and  _551
REMARK  226  A    between atoms: _550  and  _553
REMARK  227  A    between atoms: _553  and  _554
REMARK                            x       y       z     vdW  Elec       q    Type
REMARK                         _______ _______ _______ _____ _____    ______ ____
ROOT
ATOM      1  O   HOH     1      11.185  30.425   0.768  0.00  0.00    +0.000 OA
ENDROOT
TORSDOF 0
REMARK  Name = ../refined-set-2016/1hxw/1hxw_pocket.pdb
REMARK  227 active torsions:
REMARK  status: ('A' for Active; 'I' for Inactive)
REMARK    1  A    between atoms: _1  and  _3
REMARK    2  A    between atoms: _3  and  _4
REMARK    3  A    between atoms: _3  and  _6
REMARK    4  A    between atoms: _6  and  _7
REMARK    5  A    between atoms: _7  and  _8
REMARK    6  A    between atoms: _8  and  _9
REMARK    7  A    between atoms: _18  and  _20
REMARK    8  A    between atoms: _20  and  _21
REMARK    9  A    between atoms: _20  and  _23
REMARK   10  A    between atoms: _23  and  _24
REMARK   11  A    between atoms: _27  and  _29
REMARK   12  A    between atoms: _29  and  _30
REMARK   13  A    between atoms: _29  and  _32
REMARK   14  A    between atoms: _32  and  _33
REMARK   15  A    between atoms: _36  and  _38
REMARK   16  A    between atoms: _38  and  _39
REMARK   17  A    between atoms: _38  and  _41
REMARK   18  A    between atoms: _41  and  _42
REMARK   19  A    between atoms: _45  and  _47
REMARK   20  A    between atoms: _47  and  _48
REMARK   21  A    between atoms: _47  and  _50
REMARK   22  A    between atoms: _50  and  _51
REMARK   23  A    between atoms: _54  and  _56
REMARK   24  A    between atoms: _56  and  _57
REMARK   25  A    between atoms: _59  and  _61
REMARK   26  A    between atoms: _61  and  _62
REMARK   27  A    between atoms: _65  and  _67
REMARK   28  A    between atoms: _67  and  _68
REMARK   29  A    between atoms: _67  and  _70
REMARK   30  A    between atoms: _70  and  _71
REMARK   31  A    between atoms: _74  and  _76
REMARK   32  A    between atoms: _76  and  _77
REMARK   33  A    between atoms: _76  and  _79
REMARK   34  A    between atoms: _79  and  _80
REMARK   35  A    between atoms: _83  and  _85
REMARK   36  A    between atoms: _85  and  _86
REMARK   37  A    between atoms: _85  and  _88
REMARK   38  A    between atoms: _88  and  _89
REMARK   39  A    between atoms: _92  and  _94
REMARK   40  A    between atoms: _94  and  _95
REMARK   41  A    between atoms: _94  and  _97
REMARK   42  A    between atoms: _100  and  _102
REMARK   43  A    between atoms: _102  and  _103
REMARK   44  A    between atoms: _102  and  _105
REMARK   45  A    between atoms: _105  and  _106
REMARK   46  A    between atoms: _106  and  _107
REMARK   47  A    between atoms: _107  and  _108
REMARK   48  A    between atoms: _108  and  _109
REMARK   49  A    between atoms: _113  and  _115
REMARK   50  A    between atoms: _115  and  _116
REMARK   51  A    between atoms: _115  and  _118
REMARK   52  A    between atoms: _118  and  _119
REMARK   53  A    between atoms: _119  and  _120
REMARK   54  A    between atoms: _122  and  _124
REMARK   55  A    between atoms: _124  and  _125
REMARK   56  A    between atoms: _124  and  _127
REMARK   57  A    between atoms: _127  and  _128
REMARK   58  A    between atoms: _131  and  _133
REMARK   59  A    between atoms: _133  and  _134
REMARK   60  A    between atoms: _136  and  _138
REMARK   61  A    between atoms: _138  and  _139
REMARK   62  A    between atoms: _141  and  _143
REMARK   63  A    between atoms: _143  and  _144
REMARK   64  A    between atoms: _143  and  _146
REMARK   65  A    between atoms: _146  and  _147
REMARK   66  A    between atoms: _150  and  _152
REMARK   67  A    between atoms: _152  and  _153
REMARK   68  A    between atoms: _155  and  _157
REMARK   69  A    between atoms: _157  and  _158
REMARK   70  A    between atoms: _160  and  _162
REMARK   71  A    between atoms: _162  and  _163
REMARK   72  A    between atoms: _162  and  _165
REMARK   73  A    between atoms: _165  and  _166
REMARK   74  A    between atoms: _172  and  _174
REMARK   75  A    between atoms: _174  and  _175
REMARK   76  A    between atoms: _174  and  _177
REMARK   77  A    between atoms: _177  and  _178
REMARK   78  A    between atoms: _181  and  _183
REMARK   79  A    between atoms: _183  and  _184
REMARK   80  A    between atoms: _183  and  _186
REMARK   81  A    between atoms: _186  and  _187
REMARK   82  A    between atoms: _191  and  _192
REMARK   83  A    between atoms: _197  and  _199
REMARK   84  A    between atoms: _199  and  _200
REMARK   85  A    between atoms: _199  and  _202
REMARK   86  A    between atoms: _202  and  _203
REMARK   87  A    between atoms: _207  and  _208
REMARK   88  A    between atoms: _213  and  _215
REMARK   89  A    between atoms: _215  and  _216
REMARK   90  A    between atoms: _215  and  _218
REMARK   91  A    between atoms: _221  and  _223
REMARK   92  A    between atoms: _223  and  _224
REMARK   93  A    between atoms: _223  and  _226
REMARK   94  A    between atoms: _226  and  _227
REMARK   95  A    between atoms: _232  and  _234
REMARK   96  A    between atoms: _234  and  _235
REMARK   97  A    between atoms: _234  and  _237
REMARK   98  A    between atoms: _237  and  _238
REMARK   99  A    between atoms: _241  and  _243
REMARK  100  A    between atoms: _243  and  _244
REMARK  101  A    between atoms: _246  and  _248
REMARK  102  A    between atoms: _248  and  _249
REMARK  103  A    between atoms: _248  and  _251
REMARK  104  A    between atoms: _251  and  _252
REMARK  105  A    between atoms: _252  and  _253
REMARK  106  A    between atoms: _253  and  _254
REMARK  107  A    between atoms: _263  and  _265
REMARK  108  A    between atoms: _265  and  _266
REMARK  109  A    between atoms: _265  and  _268
REMARK  110  A    between atoms: _268  and  _269
REMARK  111  A    between atoms: _269  and  _270
REMARK  112  A    between atoms: _270  and  _271
REMARK  113  A    between atoms: _280  and  _282
REMARK  114  A    between atoms: _282  and  _283
REMARK  115  A    between atoms: _282  and  _285
REMARK  116  A    between atoms: _285  and  _286
REMARK  117  A    between atoms: _289  and  _291
REMARK  118  A    between atoms: _291  and  _292
REMARK  119  A    between atoms: _291  and  _294
REMARK  120  A    between atoms: _294  and  _295
REMARK  121  A    between atoms: _298  and  _300
REMARK  122  A    between atoms: _300  and  _301
REMARK  123  A    between atoms: _300  and  _303
REMARK  124  A    between atoms: _303  and  _304
REMARK  125  A    between atoms: _307  and  _309
REMARK  126  A    between atoms: _309  and  _310
REMARK  127  A    between atoms: _309  and  _312
REMARK  128  A    between atoms: _312  and  _313
REMARK  129  A    between atoms: _316  and  _318
REMARK  130  A    between atoms: _318  and  _319
REMARK  131  A    between atoms: _318  and  _321
REMARK  132  A    between atoms: _321  and  _322
REMARK  133  A    between atoms: _325  and  _327
REMARK  134  A    between atoms: _327  and  _328
REMARK  135  A    between atoms: _330  and  _332
REMARK  136  A    between atoms: _332  and  _333
REMARK  137  A    between atoms: _336  and  _338
REMARK  138  A    between atoms: _338  and  _339
REMARK  139  A    between atoms: _338  and  _341
REMARK  140  A    between atoms: _341  and  _342
REMARK  141  A    between atoms: _345  and  _347
REMARK  142  A    between atoms: _347  and  _348
REMARK  143  A    between atoms: _347  and  _350
REMARK  144  A    between atoms: _350  and  _351
REMARK  145  A    between atoms: _354  and  _356
REMARK  146  A    between atoms: _356  and  _357
REMARK  147  A    between atoms: _356  and  _359
REMARK  148  A    between atoms: _359  and  _360
REMARK  149  A    between atoms: _363  and  _365
REMARK  150  A    between atoms: _365  and  _366
REMARK  151  A    between atoms: _365  and  _368
REMARK  152  A    between atoms: _371  and  _373
REMARK  153  A    between atoms: _373  and  _374
REMARK  154  A    between atoms: _373  and  _376
REMARK  155  A    between atoms: _376  and  _377
REMARK  156  A    between atoms: _380  and  _382
REMARK  157  A    between atoms: _382  and  _383
REMARK  158  A    between atoms: _382  and  _385
REMARK  159  A    between atoms: _385  and  _386
REMARK  160  A    between atoms: _386  and  _387
REMARK  161  A    between atoms: _387  and  _388
REMARK  162  A    between atoms: _388  and  _389
REMARK  163  A    between atoms: _393  and  _395
REMARK  164  A    between atoms: _395  and  _396
REMARK  165  A    between atoms: _395  and  _398
REMARK  166  A    between atoms: _398  and  _399
REMARK  167  A    between atoms: _399  and  _400
REMARK  168  A    between atoms: _402  and  _404
REMARK  169  A    between atoms: _404  and  _405
REMARK  170  A    between atoms: _404  and  _407
REMARK  171  A    between atoms: _407  and  _408
REMARK  172  A    between atoms: _411  and  _413
REMARK  173  A    between atoms: _413  and  _414
REMARK  174  A    between atoms: _416  and  _418
REMARK  175  A    between atoms: _418  and  _419
REMARK  176  A    between atoms: _421  and  _423
REMARK  177  A    between atoms: _423  and  _424
REMARK  178  A    between atoms: _423  and  _426
REMARK  179  A    between atoms: _426  and  _427
REMARK  180  A    between atoms: _430  and  _432
REMARK  181  A    between atoms: _432  and  _433
REMARK  182  A    between atoms: _435  and  _437
REMARK  183  A    between atoms: _437  and  _438
REMARK  184  A    between atoms: _440  and  _442
REMARK  185  A    between atoms: _442  and  _443
REMARK  186  A    between atoms: _442  and  _445
REMARK  187  A    between atoms: _445  and  _446
REMARK  188  A    between atoms: _449  and  _451
REMARK  189  A    between atoms: _451  and  _452
REMARK  190  A    between atoms: _451  and  _454
REMARK  191  A    between atoms: _457  and  _459
REMARK  192  A    between atoms: _459  and  _460
REMARK  193  A    between atoms: _459  and  _462
REMARK  194  A    between atoms: _462  and  _463
REMARK  195  A    between atoms: _467  and  _468
REMARK  196  A    between atoms: _473  and  _475
REMARK  197  A    between atoms: _475  and  _476
REMARK  198  A    between atoms: _475  and  _478
REMARK  199  A    between atoms: _478  and  _479
REMARK  200  A    between atoms: _483  and  _484
REMARK  201  A    between atoms: _489  and  _491
REMARK  202  A    between atoms: _491  and  _492
REMARK  203  A    between atoms: _491  and  _494
REMARK  204  A    between atoms: _497  and  _499
REMARK  205  A    between atoms: _499  and  _500
REMARK  206  A    between atoms: _499  and  _502
REMARK  207  A    between atoms: _502  and  _503
REMARK  208  A    between atoms: _508  and  _510
REMARK  209  A    between atoms: _510  and  _511
REMARK  210  A    between atoms: _510  and  _513
REMARK  211  A    between atoms: _513  and  _514
REMARK  212  A    between atoms: _517  and  _519
REMARK  213  A    between atoms: _519  and  _520
REMARK  214  A    between atoms: _519  and  _522
REMARK  215  A    between atoms: _522  and  _523
REMARK  216  A    between atoms: _526  and  _528
REMARK  217  A    between atoms: _528  and  _529
REMARK  218  A    between atoms: _531  and  _533
REMARK  219  A    between atoms: _533  and  _534
REMARK  220  A    between atoms: _533  and  _536
REMARK  221  A    between atoms: _536  and  _537
REMARK  222  A    between atoms: _537  and  _538
REMARK  223  A    between atoms: _538  and  _539
REMARK  224  A    between atoms: _548  and  _550
REMARK  225  A    between atoms: _550  and  _551
REMARK  226  A    between atoms: _550  and  _553
REMARK  227  A    between atoms: _553  and  _554
REMARK                            x       y       z     vdW  Elec       q    Type
REMARK                         _______ _______ _______ _____ _____    ______ ____
ROOT
ATOM      1  O   HOH     1       8.653  33.399  11.919  0.00  0.00    +0.000 OA
ENDROOT
TORSDOF 0
REMARK  Name = ../refined-set-2016/1hxw/1hxw_pocket.pdb
REMARK  227 active torsions:
REMARK  status: ('A' for Active; 'I' for Inactive)
REMARK    1  A    between atoms: _1  and  _3
REMARK    2  A    between atoms: _3  and  _4
REMARK    3  A    between atoms: _3  and  _6
REMARK    4  A    between atoms: _6  and  _7
REMARK    5  A    between atoms: _7  and  _8
REMARK    6  A    between atoms: _8  and  _9
REMARK    7  A    between atoms: _18  and  _20
REMARK    8  A    between atoms: _20  and  _21
REMARK    9  A    between atoms: _20  and  _23
REMARK   10  A    between atoms: _23  and  _24
REMARK   11  A    between atoms: _27  and  _29
REMARK   12  A    between atoms: _29  and  _30
REMARK   13  A    between atoms: _29  and  _32
REMARK   14  A    between atoms: _32  and  _33
REMARK   15  A    between atoms: _36  and  _38
REMARK   16  A    between atoms: _38  and  _39
REMARK   17  A    between atoms: _38  and  _41
REMARK   18  A    between atoms: _41  and  _42
REMARK   19  A    between atoms: _45  and  _47
REMARK   20  A    between atoms: _47  and  _48
REMARK   21  A    between atoms: _47  and  _50
REMARK   22  A    between atoms: _50  and  _51
REMARK   23  A    between atoms: _54  and  _56
REMARK   24  A    between atoms: _56  and  _57
REMARK   25  A    between atoms: _59  and  _61
REMARK   26  A    between atoms: _61  and  _62
REMARK   27  A    between atoms: _65  and  _67
REMARK   28  A    between atoms: _67  and  _68
REMARK   29  A    between atoms: _67  and  _70
REMARK   30  A    between atoms: _70  and  _71
REMARK   31  A    between atoms: _74  and  _76
REMARK   32  A    between atoms: _76  and  _77
REMARK   33  A    between atoms: _76  and  _79
REMARK   34  A    between atoms: _79  and  _80
REMARK   35  A    between atoms: _83  and  _85
REMARK   36  A    between atoms: _85  and  _86
REMARK   37  A    between atoms: _85  and  _88
REMARK   38  A    between atoms: _88  and  _89
REMARK   39  A    between atoms: _92  and  _94
REMARK   40  A    between atoms: _94  and  _95
REMARK   41  A    between atoms: _94  and  _97
REMARK   42  A    between atoms: _100  and  _102
REMARK   43  A    between atoms: _102  and  _103
REMARK   44  A    between atoms: _102  and  _105
REMARK   45  A    between atoms: _105  and  _106
REMARK   46  A    between atoms: _106  and  _107
REMARK   47  A    between atoms: _107  and  _108
REMARK   48  A    between atoms: _108  and  _109
REMARK   49  A    between atoms: _113  and  _115
REMARK   50  A    between atoms: _115  and  _116
REMARK   51  A    between atoms: _115  and  _118
REMARK   52  A    between atoms: _118  and  _119
REMARK   53  A    between atoms: _119  and  _120
REMARK   54  A    between atoms: _122  and  _124
REMARK   55  A    between atoms: _124  and  _125
REMARK   56  A    between atoms: _124  and  _127
REMARK   57  A    between atoms: _127  and  _128
REMARK   58  A    between atoms: _131  and  _133
REMARK   59  A    between atoms: _133  and  _134
REMARK   60  A    between atoms: _136  and  _138
REMARK   61  A    between atoms: _138  and  _139
REMARK   62  A    between atoms: _141  and  _143
REMARK   63  A    between atoms: _143  and  _144
REMARK   64  A    between atoms: _143  and  _146
REMARK   65  A    between atoms: _146  and  _147
REMARK   66  A    between atoms: _150  and  _152
REMARK   67  A    between atoms: _152  and  _153
REMARK   68  A    between atoms: _155  and  _157
REMARK   69  A    between atoms: _157  and  _158
REMARK   70  A    between atoms: _160  and  _162
REMARK   71  A    between atoms: _162  and  _163
REMARK   72  A    between atoms: _162  and  _165
REMARK   73  A    between atoms: _165  and  _166
REMARK   74  A    between atoms: _172  and  _174
REMARK   75  A    between atoms: _174  and  _175
REMARK   76  A    between atoms: _174  and  _177
REMARK   77  A    between atoms: _177  and  _178
REMARK   78  A    between atoms: _181  and  _183
REMARK   79  A    between atoms: _183  and  _184
REMARK   80  A    between atoms: _183  and  _186
REMARK   81  A    between atoms: _186  and  _187
REMARK   82  A    between atoms: _191  and  _192
REMARK   83  A    between atoms: _197  and  _199
REMARK   84  A    between atoms: _199  and  _200
REMARK   85  A    between atoms: _199  and  _202
REMARK   86  A    between atoms: _202  and  _203
REMARK   87  A    between atoms: _207  and  _208
REMARK   88  A    between atoms: _213  and  _215
REMARK   89  A    between atoms: _215  and  _216
REMARK   90  A    between atoms: _215  and  _218
REMARK   91  A    between atoms: _221  and  _223
REMARK   92  A    between atoms: _223  and  _224
REMARK   93  A    between atoms: _223  and  _226
REMARK   94  A    between atoms: _226  and  _227
REMARK   95  A    between atoms: _232  and  _234
REMARK   96  A    between atoms: _234  and  _235
REMARK   97  A    between atoms: _234  and  _237
REMARK   98  A    between atoms: _237  and  _238
REMARK   99  A    between atoms: _241  and  _243
REMARK  100  A    between atoms: _243  and  _244
REMARK  101  A    between atoms: _246  and  _248
REMARK  102  A    between atoms: _248  and  _249
REMARK  103  A    between atoms: _248  and  _251
REMARK  104  A    between atoms: _251  and  _252
REMARK  105  A    between atoms: _252  and  _253
REMARK  106  A    between atoms: _253  and  _254
REMARK  107  A    between atoms: _263  and  _265
REMARK  108  A    between atoms: _265  and  _266
REMARK  109  A    between atoms: _265  and  _268
REMARK  110  A    between atoms: _268  and  _269
REMARK  111  A    between atoms: _269  and  _270
REMARK  112  A    between atoms: _270  and  _271
REMARK  113  A    between atoms: _280  and  _282
REMARK  114  A    between atoms: _282  and  _283
REMARK  115  A    between atoms: _282  and  _285
REMARK  116  A    between atoms: _285  and  _286
REMARK  117  A    between atoms: _289  and  _291
REMARK  118  A    between atoms: _291  and  _292
REMARK  119  A    between atoms: _291  and  _294
REMARK  120  A    between atoms: _294  and  _295
REMARK  121  A    between atoms: _298  and  _300
REMARK  122  A    between atoms: _300  and  _301
REMARK  123  A    between atoms: _300  and  _303
REMARK  124  A    between atoms: _303  and  _304
REMARK  125  A    between atoms: _307  and  _309
REMARK  126  A    between atoms: _309  and  _310
REMARK  127  A    between atoms: _309  and  _312
REMARK  128  A    between atoms: _312  and  _313
REMARK  129  A    between atoms: _316  and  _318
REMARK  130  A    between atoms: _318  and  _319
REMARK  131  A    between atoms: _318  and  _321
REMARK  132  A    between atoms: _321  and  _322
REMARK  133  A    between atoms: _325  and  _327
REMARK  134  A    between atoms: _327  and  _328
REMARK  135  A    between atoms: _330  and  _332
REMARK  136  A    between atoms: _332  and  _333
REMARK  137  A    between atoms: _336  and  _338
REMARK  138  A    between atoms: _338  and  _339
REMARK  139  A    between atoms: _338  and  _341
REMARK  140  A    between atoms: _341  and  _342
REMARK  141  A    between atoms: _345  and  _347
REMARK  142  A    between atoms: _347  and  _348
REMARK  143  A    between atoms: _347  and  _350
REMARK  144  A    between atoms: _350  and  _351
REMARK  145  A    between atoms: _354  and  _356
REMARK  146  A    between atoms: _356  and  _357
REMARK  147  A    between atoms: _356  and  _359
REMARK  148  A    between atoms: _359  and  _360
REMARK  149  A    between atoms: _363  and  _365
REMARK  150  A    between atoms: _365  and  _366
REMARK  151  A    between atoms: _365  and  _368
REMARK  152  A    between atoms: _371  and  _373
REMARK  153  A    between atoms: _373  and  _374
REMARK  154  A    between atoms: _373  and  _376
REMARK  155  A    between atoms: _376  and  _377
REMARK  156  A    between atoms: _380  and  _382
REMARK  157  A    between atoms: _382  and  _383
REMARK  158  A    between atoms: _382  and  _385
REMARK  159  A    between atoms: _385  and  _386
REMARK  160  A    between atoms: _386  and  _387
REMARK  161  A    between atoms: _387  and  _388
REMARK  162  A    between atoms: _388  and  _389
REMARK  163  A    between atoms: _393  and  _395
REMARK  164  A    between atoms: _395  and  _396
REMARK  165  A    between atoms: _395  and  _398
REMARK  166  A    between atoms: _398  and  _399
REMARK  167  A    between atoms: _399  and  _400
REMARK  168  A    between atoms: _402  and  _404
REMARK  169  A    between atoms: _404  and  _405
REMARK  170  A    between atoms: _404  and  _407
REMARK  171  A    between atoms: _407  and  _408
REMARK  172  A    between atoms: _411  and  _413
REMARK  173  A    between atoms: _413  and  _414
REMARK  174  A    between atoms: _416  and  _418
REMARK  175  A    between atoms: _418  and  _419
REMARK  176  A    between atoms: _421  and  _423
REMARK  177  A    between atoms: _423  and  _424
REMARK  178  A    between atoms: _423  and  _426
REMARK  179  A    between atoms: _426  and  _427
REMARK  180  A    between atoms: _430  and  _432
REMARK  181  A    between atoms: _432  and  _433
REMARK  182  A    between atoms: _435  and  _437
REMARK  183  A    between atoms: _437  and  _438
REMARK  184  A    between atoms: _440  and  _442
REMARK  185  A    between atoms: _442  and  _443
REMARK  186  A    between atoms: _442  and  _445
REMARK  187  A    between atoms: _445  and  _446
REMARK  188  A    between atoms: _449  and  _451
REMARK  189  A    between atoms: _451  and  _452
REMARK  190  A    between atoms: _451  and  _454
REMARK  191  A    between atoms: _457  and  _459
REMARK  192  A    between atoms: _459  and  _460
REMARK  193  A    between atoms: _459  and  _462
REMARK  194  A    between atoms: _462  and  _463
REMARK  195  A    between atoms: _467  and  _468
REMARK  196  A    between atoms: _473  and  _475
REMARK  197  A    between atoms: _475  and  _476
REMARK  198  A    between atoms: _475  and  _478
REMARK  199  A    between atoms: _478  and  _479
REMARK  200  A    between atoms: _483  and  _484
REMARK  201  A    between atoms: _489  and  _491
REMARK  202  A    between atoms: _491  and  _492
REMARK  203  A    between atoms: _491  and  _494
REMARK  204  A    between atoms: _497  and  _499
REMARK  205  A    between atoms: _499  and  _500
REMARK  206  A    between atoms: _499  and  _502
REMARK  207  A    between atoms: _502  and  _503
REMARK  208  A    between atoms: _508  and  _510
REMARK  209  A    between atoms: _510  and  _511
REMARK  210  A    between atoms: _510  and  _513
REMARK  211  A    between atoms: _513  and  _514
REMARK  212  A    between atoms: _517  and  _519
REMARK  213  A    between atoms: _519  and  _520
REMARK  214  A    between atoms: _519  and  _522
REMARK  215  A    between atoms: _522  and  _523
REMARK  216  A    between atoms: _526  and  _528
REMARK  217  A    between atoms: _528  and  _529
REMARK  218  A    between atoms: _531  and  _533
REMARK  219  A    between atoms: _533  and  _534
REMARK  220  A    between atoms: _533  and  _536
REMARK  221  A    between atoms: _536  and  _537
REMARK  222  A    between atoms: _537  and  _538
REMARK  223  A    between atoms: _538  and  _539
REMARK  224  A    between atoms: _548  and  _550
REMARK  225  A    between atoms: _550  and  _551
REMARK  226  A    between atoms: _550  and  _553
REMARK  227  A    between atoms: _553  and  _554
REMARK                            x       y       z     vdW  Elec       q    Type
REMARK                         _______ _______ _______ _____ _____    ______ ____
ROOT
ATOM      1  O   HOH     1       3.103  25.893   6.790  0.00  0.00    +0.000 OA
ENDROOT
TORSDOF 0
REMARK  Name = ../refined-set-2016/1hxw/1hxw_pocket.pdb
REMARK  227 active torsions:
REMARK  status: ('A' for Active; 'I' for Inactive)
REMARK    1  A    between atoms: _1  and  _3
REMARK    2  A    between atoms: _3  and  _4
REMARK    3  A    between atoms: _3  and  _6
REMARK    4  A    between atoms: _6  and  _7
REMARK    5  A    between atoms: _7  and  _8
REMARK    6  A    between atoms: _8  and  _9
REMARK    7  A    between atoms: _18  and  _20
REMARK    8  A    between atoms: _20  and  _21
REMARK    9  A    between atoms: _20  and  _23
REMARK   10  A    between atoms: _23  and  _24
REMARK   11  A    between atoms: _27  and  _29
REMARK   12  A    between atoms: _29  and  _30
REMARK   13  A    between atoms: _29  and  _32
REMARK   14  A    between atoms: _32  and  _33
REMARK   15  A    between atoms: _36  and  _38
REMARK   16  A    between atoms: _38  and  _39
REMARK   17  A    between atoms: _38  and  _41
REMARK   18  A    between atoms: _41  and  _42
REMARK   19  A    between atoms: _45  and  _47
REMARK   20  A    between atoms: _47  and  _48
REMARK   21  A    between atoms: _47  and  _50
REMARK   22  A    between atoms: _50  and  _51
REMARK   23  A    between atoms: _54  and  _56
REMARK   24  A    between atoms: _56  and  _57
REMARK   25  A    between atoms: _59  and  _61
REMARK   26  A    between atoms: _61  and  _62
REMARK   27  A    between atoms: _65  and  _67
REMARK   28  A    between atoms: _67  and  _68
REMARK   29  A    between atoms: _67  and  _70
REMARK   30  A    between atoms: _70  and  _71
REMARK   31  A    between atoms: _74  and  _76
REMARK   32  A    between atoms: _76  and  _77
REMARK   33  A    between atoms: _76  and  _79
REMARK   34  A    between atoms: _79  and  _80
REMARK   35  A    between atoms: _83  and  _85
REMARK   36  A    between atoms: _85  and  _86
REMARK   37  A    between atoms: _85  and  _88
REMARK   38  A    between atoms: _88  and  _89
REMARK   39  A    between atoms: _92  and  _94
REMARK   40  A    between atoms: _94  and  _95
REMARK   41  A    between atoms: _94  and  _97
REMARK   42  A    between atoms: _100  and  _102
REMARK   43  A    between atoms: _102  and  _103
REMARK   44  A    between atoms: _102  and  _105
REMARK   45  A    between atoms: _105  and  _106
REMARK   46  A    between atoms: _106  and  _107
REMARK   47  A    between atoms: _107  and  _108
REMARK   48  A    between atoms: _108  and  _109
REMARK   49  A    between atoms: _113  and  _115
REMARK   50  A    between atoms: _115  and  _116
REMARK   51  A    between atoms: _115  and  _118
REMARK   52  A    between atoms: _118  and  _119
REMARK   53  A    between atoms: _119  and  _120
REMARK   54  A    between atoms: _122  and  _124
REMARK   55  A    between atoms: _124  and  _125
REMARK   56  A    between atoms: _124  and  _127
REMARK   57  A    between atoms: _127  and  _128
REMARK   58  A    between atoms: _131  and  _133
REMARK   59  A    between atoms: _133  and  _134
REMARK   60  A    between atoms: _136  and  _138
REMARK   61  A    between atoms: _138  and  _139
REMARK   62  A    between atoms: _141  and  _143
REMARK   63  A    between atoms: _143  and  _144
REMARK   64  A    between atoms: _143  and  _146
REMARK   65  A    between atoms: _146  and  _147
REMARK   66  A    between atoms: _150  and  _152
REMARK   67  A    between atoms: _152  and  _153
REMARK   68  A    between atoms: _155  and  _157
REMARK   69  A    between atoms: _157  and  _158
REMARK   70  A    between atoms: _160  and  _162
REMARK   71  A    between atoms: _162  and  _163
REMARK   72  A    between atoms: _162  and  _165
REMARK   73  A    between atoms: _165  and  _166
REMARK   74  A    between atoms: _172  and  _174
REMARK   75  A    between atoms: _174  and  _175
REMARK   76  A    between atoms: _174  and  _177
REMARK   77  A    between atoms: _177  and  _178
REMARK   78  A    between atoms: _181  and  _183
REMARK   79  A    between atoms: _183  and  _184
REMARK   80  A    between atoms: _183  and  _186
REMARK   81  A    between atoms: _186  and  _187
REMARK   82  A    between atoms: _191  and  _192
REMARK   83  A    between atoms: _197  and  _199
REMARK   84  A    between atoms: _199  and  _200
REMARK   85  A    between atoms: _199  and  _202
REMARK   86  A    between atoms: _202  and  _203
REMARK   87  A    between atoms: _207  and  _208
REMARK   88  A    between atoms: _213  and  _215
REMARK   89  A    between atoms: _215  and  _216
REMARK   90  A    between atoms: _215  and  _218
REMARK   91  A    between atoms: _221  and  _223
REMARK   92  A    between atoms: _223  and  _224
REMARK   93  A    between atoms: _223  and  _226
REMARK   94  A    between atoms: _226  and  _227
REMARK   95  A    between atoms: _232  and  _234
REMARK   96  A    between atoms: _234  and  _235
REMARK   97  A    between atoms: _234  and  _237
REMARK   98  A    between atoms: _237  and  _238
REMARK   99  A    between atoms: _241  and  _243
REMARK  100  A    between atoms: _243  and  _244
REMARK  101  A    between atoms: _246  and  _248
REMARK  102  A    between atoms: _248  and  _249
REMARK  103  A    between atoms: _248  and  _251
REMARK  104  A    between atoms: _251  and  _252
REMARK  105  A    between atoms: _252  and  _253
REMARK  106  A    between atoms: _253  and  _254
REMARK  107  A    between atoms: _263  and  _265
REMARK  108  A    between atoms: _265  and  _266
REMARK  109  A    between atoms: _265  and  _268
REMARK  110  A    between atoms: _268  and  _269
REMARK  111  A    between atoms: _269  and  _270
REMARK  112  A    between atoms: _270  and  _271
REMARK  113  A    between atoms: _280  and  _282
REMARK  114  A    between atoms: _282  and  _283
REMARK  115  A    between atoms: _282  and  _285
REMARK  116  A    between atoms: _285  and  _286
REMARK  117  A    between atoms: _289  and  _291
REMARK  118  A    between atoms: _291  and  _292
REMARK  119  A    between atoms: _291  and  _294
REMARK  120  A    between atoms: _294  and  _295
REMARK  121  A    between atoms: _298  and  _300
REMARK  122  A    between atoms: _300  and  _301
REMARK  123  A    between atoms: _300  and  _303
REMARK  124  A    between atoms: _303  and  _304
REMARK  125  A    between atoms: _307  and  _309
REMARK  126  A    between atoms: _309  and  _310
REMARK  127  A    between atoms: _309  and  _312
REMARK  128  A    between atoms: _312  and  _313
REMARK  129  A    between atoms: _316  and  _318
REMARK  130  A    between atoms: _318  and  _319
REMARK  131  A    between atoms: _318  and  _321
REMARK  132  A    between atoms: _321  and  _322
REMARK  133  A    between atoms: _325  and  _327
REMARK  134  A    between atoms: _327  and  _328
REMARK  135  A    between atoms: _330  and  _332
REMARK  136  A    between atoms: _332  and  _333
REMARK  137  A    between atoms: _336  and  _338
REMARK  138  A    between atoms: _338  and  _339
REMARK  139  A    between atoms: _338  and  _341
REMARK  140  A    between atoms: _341  and  _342
REMARK  141  A    between atoms: _345  and  _347
REMARK  142  A    between atoms: _347  and  _348
REMARK  143  A    between atoms: _347  and  _350
REMARK  144  A    between atoms: _350  and  _351
REMARK  145  A    between atoms: _354  and  _356
REMARK  146  A    between atoms: _356  and  _357
REMARK  147  A    between atoms: _356  and  _359
REMARK  148  A    between atoms: _359  and  _360
REMARK  149  A    between atoms: _363  and  _365
REMARK  150  A    between atoms: _365  and  _366
REMARK  151  A    between atoms: _365  and  _368
REMARK  152  A    between atoms: _371  and  _373
REMARK  153  A    between atoms: _373  and  _374
REMARK  154  A    between atoms: _373  and  _376
REMARK  155  A    between atoms: _376  and  _377
REMARK  156  A    between atoms: _380  and  _382
REMARK  157  A    between atoms: _382  and  _383
REMARK  158  A    between atoms: _382  and  _385
REMARK  159  A    between atoms: _385  and  _386
REMARK  160  A    between atoms: _386  and  _387
REMARK  161  A    between atoms: _387  and  _388
REMARK  162  A    between atoms: _388  and  _389
REMARK  163  A    between atoms: _393  and  _395
REMARK  164  A    between atoms: _395  and  _396
REMARK  165  A    between atoms: _395  and  _398
REMARK  166  A    between atoms: _398  and  _399
REMARK  167  A    between atoms: _399  and  _400
REMARK  168  A    between atoms: _402  and  _404
REMARK  169  A    between atoms: _404  and  _405
REMARK  170  A    between atoms: _404  and  _407
REMARK  171  A    between atoms: _407  and  _408
REMARK  172  A    between atoms: _411  and  _413
REMARK  173  A    between atoms: _413  and  _414
REMARK  174  A    between atoms: _416  and  _418
REMARK  175  A    between atoms: _418  and  _419
REMARK  176  A    between atoms: _421  and  _423
REMARK  177  A    between atoms: _423  and  _424
REMARK  178  A    between atoms: _423  and  _426
REMARK  179  A    between atoms: _426  and  _427
REMARK  180  A    between atoms: _430  and  _432
REMARK  181  A    between atoms: _432  and  _433
REMARK  182  A    between atoms: _435  and  _437
REMARK  183  A    between atoms: _437  and  _438
REMARK  184  A    between atoms: _440  and  _442
REMARK  185  A    between atoms: _442  and  _443
REMARK  186  A    between atoms: _442  and  _445
REMARK  187  A    between atoms: _445  and  _446
REMARK  188  A    between atoms: _449  and  _451
REMARK  189  A    between atoms: _451  and  _452
REMARK  190  A    between atoms: _451  and  _454
REMARK  191  A    between atoms: _457  and  _459
REMARK  192  A    between atoms: _459  and  _460
REMARK  193  A    between atoms: _459  and  _462
REMARK  194  A    between atoms: _462  and  _463
REMARK  195  A    between atoms: _467  and  _468
REMARK  196  A    between atoms: _473  and  _475
REMARK  197  A    between atoms: _475  and  _476
REMARK  198  A    between atoms: _475  and  _478
REMARK  199  A    between atoms: _478  and  _479
REMARK  200  A    between atoms: _483  and  _484
REMARK  201  A    between atoms: _489  and  _491
REMARK  202  A    between atoms: _491  and  _492
REMARK  203  A    between atoms: _491  and  _494
REMARK  204  A    between atoms: _497  and  _499
REMARK  205  A    between atoms: _499  and  _500
REMARK  206  A    between atoms: _499  and  _502
REMARK  207  A    between atoms: _502  and  _503
REMARK  208  A    between atoms: _508  and  _510
REMARK  209  A    between atoms: _510  and  _511
REMARK  210  A    between atoms: _510  and  _513
REMARK  211  A    between atoms: _513  and  _514
REMARK  212  A    between atoms: _517  and  _519
REMARK  213  A    between atoms: _519  and  _520
REMARK  214  A    between atoms: _519  and  _522
REMARK  215  A    between atoms: _522  and  _523
REMARK  216  A    between atoms: _526  and  _528
REMARK  217  A    between atoms: _528  and  _529
REMARK  218  A    between atoms: _531  and  _533
REMARK  219  A    between atoms: _533  and  _534
REMARK  220  A    between atoms: _533  and  _536
REMARK  221  A    between atoms: _536  and  _537
REMARK  222  A    between atoms: _537  and  _538
REMARK  223  A    between atoms: _538  and  _539
REMARK  224  A    between atoms: _548  and  _550
REMARK  225  A    between atoms: _550  and  _551
REMARK  226  A    between atoms: _550  and  _553
REMARK  227  A    between atoms: _553  and  _554
REMARK                            x       y       z     vdW  Elec       q    Type
REMARK                         _______ _______ _______ _____ _____    ______ ____
ROOT
ATOM      1  O   HOH     1       4.003  29.992   5.546  0.00  0.00    +0.000 OA
ENDROOT
TORSDOF 0
REMARK  Name = ../refined-set-2016/1hxw/1hxw_pocket.pdb
REMARK  227 active torsions:
REMARK  status: ('A' for Active; 'I' for Inactive)
REMARK    1  A    between atoms: _1  and  _3
REMARK    2  A    between atoms: _3  and  _4
REMARK    3  A    between atoms: _3  and  _6
REMARK    4  A    between atoms: _6  and  _7
REMARK    5  A    between atoms: _7  and  _8
REMARK    6  A    between atoms: _8  and  _9
REMARK    7  A    between atoms: _18  and  _20
REMARK    8  A    between atoms: _20  and  _21
REMARK    9  A    between atoms: _20  and  _23
REMARK   10  A    between atoms: _23  and  _24
REMARK   11  A    between atoms: _27  and  _29
REMARK   12  A    between atoms: _29  and  _30
REMARK   13  A    between atoms: _29  and  _32
REMARK   14  A    between atoms: _32  and  _33
REMARK   15  A    between atoms: _36  and  _38
REMARK   16  A    between atoms: _38  and  _39
REMARK   17  A    between atoms: _38  and  _41
REMARK   18  A    between atoms: _41  and  _42
REMARK   19  A    between atoms: _45  and  _47
REMARK   20  A    between atoms: _47  and  _48
REMARK   21  A    between atoms: _47  and  _50
REMARK   22  A    between atoms: _50  and  _51
REMARK   23  A    between atoms: _54  and  _56
REMARK   24  A    between atoms: _56  and  _57
REMARK   25  A    between atoms: _59  and  _61
REMARK   26  A    between atoms: _61  and  _62
REMARK   27  A    between atoms: _65  and  _67
REMARK   28  A    between atoms: _67  and  _68
REMARK   29  A    between atoms: _67  and  _70
REMARK   30  A    between atoms: _70  and  _71
REMARK   31  A    between atoms: _74  and  _76
REMARK   32  A    between atoms: _76  and  _77
REMARK   33  A    between atoms: _76  and  _79
REMARK   34  A    between atoms: _79  and  _80
REMARK   35  A    between atoms: _83  and  _85
REMARK   36  A    between atoms: _85  and  _86
REMARK   37  A    between atoms: _85  and  _88
REMARK   38  A    between atoms: _88  and  _89
REMARK   39  A    between atoms: _92  and  _94
REMARK   40  A    between atoms: _94  and  _95
REMARK   41  A    between atoms: _94  and  _97
REMARK   42  A    between atoms: _100  and  _102
REMARK   43  A    between atoms: _102  and  _103
REMARK   44  A    between atoms: _102  and  _105
REMARK   45  A    between atoms: _105  and  _106
REMARK   46  A    between atoms: _106  and  _107
REMARK   47  A    between atoms: _107  and  _108
REMARK   48  A    between atoms: _108  and  _109
REMARK   49  A    between atoms: _113  and  _115
REMARK   50  A    between atoms: _115  and  _116
REMARK   51  A    between atoms: _115  and  _118
REMARK   52  A    between atoms: _118  and  _119
REMARK   53  A    between atoms: _119  and  _120
REMARK   54  A    between atoms: _122  and  _124
REMARK   55  A    between atoms: _124  and  _125
REMARK   56  A    between atoms: _124  and  _127
REMARK   57  A    between atoms: _127  and  _128
REMARK   58  A    between atoms: _131  and  _133
REMARK   59  A    between atoms: _133  and  _134
REMARK   60  A    between atoms: _136  and  _138
REMARK   61  A    between atoms: _138  and  _139
REMARK   62  A    between atoms: _141  and  _143
REMARK   63  A    between atoms: _143  and  _144
REMARK   64  A    between atoms: _143  and  _146
REMARK   65  A    between atoms: _146  and  _147
REMARK   66  A    between atoms: _150  and  _152
REMARK   67  A    between atoms: _152  and  _153
REMARK   68  A    between atoms: _155  and  _157
REMARK   69  A    between atoms: _157  and  _158
REMARK   70  A    between atoms: _160  and  _162
REMARK   71  A    between atoms: _162  and  _163
REMARK   72  A    between atoms: _162  and  _165
REMARK   73  A    between atoms: _165  and  _166
REMARK   74  A    between atoms: _172  and  _174
REMARK   75  A    between atoms: _174  and  _175
REMARK   76  A    between atoms: _174  and  _177
REMARK   77  A    between atoms: _177  and  _178
REMARK   78  A    between atoms: _181  and  _183
REMARK   79  A    between atoms: _183  and  _184
REMARK   80  A    between atoms: _183  and  _186
REMARK   81  A    between atoms: _186  and  _187
REMARK   82  A    between atoms: _191  and  _192
REMARK   83  A    between atoms: _197  and  _199
REMARK   84  A    between atoms: _199  and  _200
REMARK   85  A    between atoms: _199  and  _202
REMARK   86  A    between atoms: _202  and  _203
REMARK   87  A    between atoms: _207  and  _208
REMARK   88  A    between atoms: _213  and  _215
REMARK   89  A    between atoms: _215  and  _216
REMARK   90  A    between atoms: _215  and  _218
REMARK   91  A    between atoms: _221  and  _223
REMARK   92  A    between atoms: _223  and  _224
REMARK   93  A    between atoms: _223  and  _226
REMARK   94  A    between atoms: _226  and  _227
REMARK   95  A    between atoms: _232  and  _234
REMARK   96  A    between atoms: _234  and  _235
REMARK   97  A    between atoms: _234  and  _237
REMARK   98  A    between atoms: _237  and  _238
REMARK   99  A    between atoms: _241  and  _243
REMARK  100  A    between atoms: _243  and  _244
REMARK  101  A    between atoms: _246  and  _248
REMARK  102  A    between atoms: _248  and  _249
REMARK  103  A    between atoms: _248  and  _251
REMARK  104  A    between atoms: _251  and  _252
REMARK  105  A    between atoms: _252  and  _253
REMARK  106  A    between atoms: _253  and  _254
REMARK  107  A    between atoms: _263  and  _265
REMARK  108  A    between atoms: _265  and  _266
REMARK  109  A    between atoms: _265  and  _268
REMARK  110  A    between atoms: _268  and  _269
REMARK  111  A    between atoms: _269  and  _270
REMARK  112  A    between atoms: _270  and  _271
REMARK  113  A    between atoms: _280  and  _282
REMARK  114  A    between atoms: _282  and  _283
REMARK  115  A    between atoms: _282  and  _285
REMARK  116  A    between atoms: _285  and  _286
REMARK  117  A    between atoms: _289  and  _291
REMARK  118  A    between atoms: _291  and  _292
REMARK  119  A    between atoms: _291  and  _294
REMARK  120  A    between atoms: _294  and  _295
REMARK  121  A    between atoms: _298  and  _300
REMARK  122  A    between atoms: _300  and  _301
REMARK  123  A    between atoms: _300  and  _303
REMARK  124  A    between atoms: _303  and  _304
REMARK  125  A    between atoms: _307  and  _309
REMARK  126  A    between atoms: _309  and  _310
REMARK  127  A    between atoms: _309  and  _312
REMARK  128  A    between atoms: _312  and  _313
REMARK  129  A    between atoms: _316  and  _318
REMARK  130  A    between atoms: _318  and  _319
REMARK  131  A    between atoms: _318  and  _321
REMARK  132  A    between atoms: _321  and  _322
REMARK  133  A    between atoms: _325  and  _327
REMARK  134  A    between atoms: _327  and  _328
REMARK  135  A    between atoms: _330  and  _332
REMARK  136  A    between atoms: _332  and  _333
REMARK  137  A    between atoms: _336  and  _338
REMARK  138  A    between atoms: _338  and  _339
REMARK  139  A    between atoms: _338  and  _341
REMARK  140  A    between atoms: _341  and  _342
REMARK  141  A    between atoms: _345  and  _347
REMARK  142  A    between atoms: _347  and  _348
REMARK  143  A    between atoms: _347  and  _350
REMARK  144  A    between atoms: _350  and  _351
REMARK  145  A    between atoms: _354  and  _356
REMARK  146  A    between atoms: _356  and  _357
REMARK  147  A    between atoms: _356  and  _359
REMARK  148  A    between atoms: _359  and  _360
REMARK  149  A    between atoms: _363  and  _365
REMARK  150  A    between atoms: _365  and  _366
REMARK  151  A    between atoms: _365  and  _368
REMARK  152  A    between atoms: _371  and  _373
REMARK  153  A    between atoms: _373  and  _374
REMARK  154  A    between atoms: _373  and  _376
REMARK  155  A    between atoms: _376  and  _377
REMARK  156  A    between atoms: _380  and  _382
REMARK  157  A    between atoms: _382  and  _383
REMARK  158  A    between atoms: _382  and  _385
REMARK  159  A    between atoms: _385  and  _386
REMARK  160  A    between atoms: _386  and  _387
REMARK  161  A    between atoms: _387  and  _388
REMARK  162  A    between atoms: _388  and  _389
REMARK  163  A    between atoms: _393  and  _395
REMARK  164  A    between atoms: _395  and  _396
REMARK  165  A    between atoms: _395  and  _398
REMARK  166  A    between atoms: _398  and  _399
REMARK  167  A    between atoms: _399  and  _400
REMARK  168  A    between atoms: _402  and  _404
REMARK  169  A    between atoms: _404  and  _405
REMARK  170  A    between atoms: _404  and  _407
REMARK  171  A    between atoms: _407  and  _408
REMARK  172  A    between atoms: _411  and  _413
REMARK  173  A    between atoms: _413  and  _414
REMARK  174  A    between atoms: _416  and  _418
REMARK  175  A    between atoms: _418  and  _419
REMARK  176  A    between atoms: _421  and  _423
REMARK  177  A    between atoms: _423  and  _424
REMARK  178  A    between atoms: _423  and  _426
REMARK  179  A    between atoms: _426  and  _427
REMARK  180  A    between atoms: _430  and  _432
REMARK  181  A    between atoms: _432  and  _433
REMARK  182  A    between atoms: _435  and  _437
REMARK  183  A    between atoms: _437  and  _438
REMARK  184  A    between atoms: _440  and  _442
REMARK  185  A    between atoms: _442  and  _443
REMARK  186  A    between atoms: _442  and  _445
REMARK  187  A    between atoms: _445  and  _446
REMARK  188  A    between atoms: _449  and  _451
REMARK  189  A    between atoms: _451  and  _452
REMARK  190  A    between atoms: _451  and  _454
REMARK  191  A    between atoms: _457  and  _459
REMARK  192  A    between atoms: _459  and  _460
REMARK  193  A    between atoms: _459  and  _462
REMARK  194  A    between atoms: _462  and  _463
REMARK  195  A    between atoms: _467  and  _468
REMARK  196  A    between atoms: _473  and  _475
REMARK  197  A    between atoms: _475  and  _476
REMARK  198  A    between atoms: _475  and  _478
REMARK  199  A    between atoms: _478  and  _479
REMARK  200  A    between atoms: _483  and  _484
REMARK  201  A    between atoms: _489  and  _491
REMARK  202  A    between atoms: _491  and  _492
REMARK  203  A    between atoms: _491  and  _494
REMARK  204  A    between atoms: _497  and  _499
REMARK  205  A    between atoms: _499  and  _500
REMARK  206  A    between atoms: _499  and  _502
REMARK  207  A    between atoms: _502  and  _503
REMARK  208  A    between atoms: _508  and  _510
REMARK  209  A    between atoms: _510  and  _511
REMARK  210  A    between atoms: _510  and  _513
REMARK  211  A    between atoms: _513  and  _514
REMARK  212  A    between atoms: _517  and  _519
REMARK  213  A    between atoms: _519  and  _520
REMARK  214  A    between atoms: _519  and  _522
REMARK  215  A    between atoms: _522  and  _523
REMARK  216  A    between atoms: _526  and  _528
REMARK  217  A    between atoms: _528  and  _529
REMARK  218  A    between atoms: _531  and  _533
REMARK  219  A    between atoms: _533  and  _534
REMARK  220  A    between atoms: _533  and  _536
REMARK  221  A    between atoms: _536  and  _537
REMARK  222  A    between atoms: _537  and  _538
REMARK  223  A    between atoms: _538  and  _539
REMARK  224  A    between atoms: _548  and  _550
REMARK  225  A    between atoms: _550  and  _551
REMARK  226  A    between atoms: _550  and  _553
REMARK  227  A    between atoms: _553  and  _554
REMARK                            x       y       z     vdW  Elec       q    Type
REMARK                         _______ _______ _______ _____ _____    ______ ____
ROOT
ATOM      1  O   HOH     1       8.395  35.142   5.138  0.00  0.00    +0.000 OA
ENDROOT
TORSDOF 0
REMARK  Name = ../refined-set-2016/1hxw/1hxw_pocket.pdb
REMARK  227 active torsions:
REMARK  status: ('A' for Active; 'I' for Inactive)
REMARK    1  A    between atoms: _1  and  _3
REMARK    2  A    between atoms: _3  and  _4
REMARK    3  A    between atoms: _3  and  _6
REMARK    4  A    between atoms: _6  and  _7
REMARK    5  A    between atoms: _7  and  _8
REMARK    6  A    between atoms: _8  and  _9
REMARK    7  A    between atoms: _18  and  _20
REMARK    8  A    between atoms: _20  and  _21
REMARK    9  A    between atoms: _20  and  _23
REMARK   10  A    between atoms: _23  and  _24
REMARK   11  A    between atoms: _27  and  _29
REMARK   12  A    between atoms: _29  and  _30
REMARK   13  A    between atoms: _29  and  _32
REMARK   14  A    between atoms: _32  and  _33
REMARK   15  A    between atoms: _36  and  _38
REMARK   16  A    between atoms: _38  and  _39
REMARK   17  A    between atoms: _38  and  _41
REMARK   18  A    between atoms: _41  and  _42
REMARK   19  A    between atoms: _45  and  _47
REMARK   20  A    between atoms: _47  and  _48
REMARK   21  A    between atoms: _47  and  _50
REMARK   22  A    between atoms: _50  and  _51
REMARK   23  A    between atoms: _54  and  _56
REMARK   24  A    between atoms: _56  and  _57
REMARK   25  A    between atoms: _59  and  _61
REMARK   26  A    between atoms: _61  and  _62
REMARK   27  A    between atoms: _65  and  _67
REMARK   28  A    between atoms: _67  and  _68
REMARK   29  A    between atoms: _67  and  _70
REMARK   30  A    between atoms: _70  and  _71
REMARK   31  A    between atoms: _74  and  _76
REMARK   32  A    between atoms: _76  and  _77
REMARK   33  A    between atoms: _76  and  _79
REMARK   34  A    between atoms: _79  and  _80
REMARK   35  A    between atoms: _83  and  _85
REMARK   36  A    between atoms: _85  and  _86
REMARK   37  A    between atoms: _85  and  _88
REMARK   38  A    between atoms: _88  and  _89
REMARK   39  A    between atoms: _92  and  _94
REMARK   40  A    between atoms: _94  and  _95
REMARK   41  A    between atoms: _94  and  _97
REMARK   42  A    between atoms: _100  and  _102
REMARK   43  A    between atoms: _102  and  _103
REMARK   44  A    between atoms: _102  and  _105
REMARK   45  A    between atoms: _105  and  _106
REMARK   46  A    between atoms: _106  and  _107
REMARK   47  A    between atoms: _107  and  _108
REMARK   48  A    between atoms: _108  and  _109
REMARK   49  A    between atoms: _113  and  _115
REMARK   50  A    between atoms: _115  and  _116
REMARK   51  A    between atoms: _115  and  _118
REMARK   52  A    between atoms: _118  and  _119
REMARK   53  A    between atoms: _119  and  _120
REMARK   54  A    between atoms: _122  and  _124
REMARK   55  A    between atoms: _124  and  _125
REMARK   56  A    between atoms: _124  and  _127
REMARK   57  A    between atoms: _127  and  _128
REMARK   58  A    between atoms: _131  and  _133
REMARK   59  A    between atoms: _133  and  _134
REMARK   60  A    between atoms: _136  and  _138
REMARK   61  A    between atoms: _138  and  _139
REMARK   62  A    between atoms: _141  and  _143
REMARK   63  A    between atoms: _143  and  _144
REMARK   64  A    between atoms: _143  and  _146
REMARK   65  A    between atoms: _146  and  _147
REMARK   66  A    between atoms: _150  and  _152
REMARK   67  A    between atoms: _152  and  _153
REMARK   68  A    between atoms: _155  and  _157
REMARK   69  A    between atoms: _157  and  _158
REMARK   70  A    between atoms: _160  and  _162
REMARK   71  A    between atoms: _162  and  _163
REMARK   72  A    between atoms: _162  and  _165
REMARK   73  A    between atoms: _165  and  _166
REMARK   74  A    between atoms: _172  and  _174
REMARK   75  A    between atoms: _174  and  _175
REMARK   76  A    between atoms: _174  and  _177
REMARK   77  A    between atoms: _177  and  _178
REMARK   78  A    between atoms: _181  and  _183
REMARK   79  A    between atoms: _183  and  _184
REMARK   80  A    between atoms: _183  and  _186
REMARK   81  A    between atoms: _186  and  _187
REMARK   82  A    between atoms: _191  and  _192
REMARK   83  A    between atoms: _197  and  _199
REMARK   84  A    between atoms: _199  and  _200
REMARK   85  A    between atoms: _199  and  _202
REMARK   86  A    between atoms: _202  and  _203
REMARK   87  A    between atoms: _207  and  _208
REMARK   88  A    between atoms: _213  and  _215
REMARK   89  A    between atoms: _215  and  _216
REMARK   90  A    between atoms: _215  and  _218
REMARK   91  A    between atoms: _221  and  _223
REMARK   92  A    between atoms: _223  and  _224
REMARK   93  A    between atoms: _223  and  _226
REMARK   94  A    between atoms: _226  and  _227
REMARK   95  A    between atoms: _232  and  _234
REMARK   96  A    between atoms: _234  and  _235
REMARK   97  A    between atoms: _234  and  _237
REMARK   98  A    between atoms: _237  and  _238
REMARK   99  A    between atoms: _241  and  _243
REMARK  100  A    between atoms: _243  and  _244
REMARK  101  A    between atoms: _246  and  _248
REMARK  102  A    between atoms: _248  and  _249
REMARK  103  A    between atoms: _248  and  _251
REMARK  104  A    between atoms: _251  and  _252
REMARK  105  A    between atoms: _252  and  _253
REMARK  106  A    between atoms: _253  and  _254
REMARK  107  A    between atoms: _263  and  _265
REMARK  108  A    between atoms: _265  and  _266
REMARK  109  A    between atoms: _265  and  _268
REMARK  110  A    between atoms: _268  and  _269
REMARK  111  A    between atoms: _269  and  _270
REMARK  112  A    between atoms: _270  and  _271
REMARK  113  A    between atoms: _280  and  _282
REMARK  114  A    between atoms: _282  and  _283
REMARK  115  A    between atoms: _282  and  _285
REMARK  116  A    between atoms: _285  and  _286
REMARK  117  A    between atoms: _289  and  _291
REMARK  118  A    between atoms: _291  and  _292
REMARK  119  A    between atoms: _291  and  _294
REMARK  120  A    between atoms: _294  and  _295
REMARK  121  A    between atoms: _298  and  _300
REMARK  122  A    between atoms: _300  and  _301
REMARK  123  A    between atoms: _300  and  _303
REMARK  124  A    between atoms: _303  and  _304
REMARK  125  A    between atoms: _307  and  _309
REMARK  126  A    between atoms: _309  and  _310
REMARK  127  A    between atoms: _309  and  _312
REMARK  128  A    between atoms: _312  and  _313
REMARK  129  A    between atoms: _316  and  _318
REMARK  130  A    between atoms: _318  and  _319
REMARK  131  A    between atoms: _318  and  _321
REMARK  132  A    between atoms: _321  and  _322
REMARK  133  A    between atoms: _325  and  _327
REMARK  134  A    between atoms: _327  and  _328
REMARK  135  A    between atoms: _330  and  _332
REMARK  136  A    between atoms: _332  and  _333
REMARK  137  A    between atoms: _336  and  _338
REMARK  138  A    between atoms: _338  and  _339
REMARK  139  A    between atoms: _338  and  _341
REMARK  140  A    between atoms: _341  and  _342
REMARK  141  A    between atoms: _345  and  _347
REMARK  142  A    between atoms: _347  and  _348
REMARK  143  A    between atoms: _347  and  _350
REMARK  144  A    between atoms: _350  and  _351
REMARK  145  A    between atoms: _354  and  _356
REMARK  146  A    between atoms: _356  and  _357
REMARK  147  A    between atoms: _356  and  _359
REMARK  148  A    between atoms: _359  and  _360
REMARK  149  A    between atoms: _363  and  _365
REMARK  150  A    between atoms: _365  and  _366
REMARK  151  A    between atoms: _365  and  _368
REMARK  152  A    between atoms: _371  and  _373
REMARK  153  A    between atoms: _373  and  _374
REMARK  154  A    between atoms: _373  and  _376
REMARK  155  A    between atoms: _376  and  _377
REMARK  156  A    between atoms: _380  and  _382
REMARK  157  A    between atoms: _382  and  _383
REMARK  158  A    between atoms: _382  and  _385
REMARK  159  A    between atoms: _385  and  _386
REMARK  160  A    between atoms: _386  and  _387
REMARK  161  A    between atoms: _387  and  _388
REMARK  162  A    between atoms: _388  and  _389
REMARK  163  A    between atoms: _393  and  _395
REMARK  164  A    between atoms: _395  and  _396
REMARK  165  A    between atoms: _395  and  _398
REMARK  166  A    between atoms: _398  and  _399
REMARK  167  A    between atoms: _399  and  _400
REMARK  168  A    between atoms: _402  and  _404
REMARK  169  A    between atoms: _404  and  _405
REMARK  170  A    between atoms: _404  and  _407
REMARK  171  A    between atoms: _407  and  _408
REMARK  172  A    between atoms: _411  and  _413
REMARK  173  A    between atoms: _413  and  _414
REMARK  174  A    between atoms: _416  and  _418
REMARK  175  A    between atoms: _418  and  _419
REMARK  176  A    between atoms: _421  and  _423
REMARK  177  A    between atoms: _423  and  _424
REMARK  178  A    between atoms: _423  and  _426
REMARK  179  A    between atoms: _426  and  _427
REMARK  180  A    between atoms: _430  and  _432
REMARK  181  A    between atoms: _432  and  _433
REMARK  182  A    between atoms: _435  and  _437
REMARK  183  A    between atoms: _437  and  _438
REMARK  184  A    between atoms: _440  and  _442
REMARK  185  A    between atoms: _442  and  _443
REMARK  186  A    between atoms: _442  and  _445
REMARK  187  A    between atoms: _445  and  _446
REMARK  188  A    between atoms: _449  and  _451
REMARK  189  A    between atoms: _451  and  _452
REMARK  190  A    between atoms: _451  and  _454
REMARK  191  A    between atoms: _457  and  _459
REMARK  192  A    between atoms: _459  and  _460
REMARK  193  A    between atoms: _459  and  _462
REMARK  194  A    between atoms: _462  and  _463
REMARK  195  A    between atoms: _467  and  _468
REMARK  196  A    between atoms: _473  and  _475
REMARK  197  A    between atoms: _475  and  _476
REMARK  198  A    between atoms: _475  and  _478
REMARK  199  A    between atoms: _478  and  _479
REMARK  200  A    between atoms: _483  and  _484
REMARK  201  A    between atoms: _489  and  _491
REMARK  202  A    between atoms: _491  and  _492
REMARK  203  A    between atoms: _491  and  _494
REMARK  204  A    between atoms: _497  and  _499
REMARK  205  A    between atoms: _499  and  _500
REMARK  206  A    between atoms: _499  and  _502
REMARK  207  A    between atoms: _502  and  _503
REMARK  208  A    between atoms: _508  and  _510
REMARK  209  A    between atoms: _510  and  _511
REMARK  210  A    between atoms: _510  and  _513
REMARK  211  A    between atoms: _513  and  _514
REMARK  212  A    between atoms: _517  and  _519
REMARK  213  A    between atoms: _519  and  _520
REMARK  214  A    between atoms: _519  and  _522
REMARK  215  A    between atoms: _522  and  _523
REMARK  216  A    between atoms: _526  and  _528
REMARK  217  A    between atoms: _528  and  _529
REMARK  218  A    between atoms: _531  and  _533
REMARK  219  A    between atoms: _533  and  _534
REMARK  220  A    between atoms: _533  and  _536
REMARK  221  A    between atoms: _536  and  _537
REMARK  222  A    between atoms: _537  and  _538
REMARK  223  A    between atoms: _538  and  _539
REMARK  224  A    between atoms: _548  and  _550
REMARK  225  A    between atoms: _550  and  _551
REMARK  226  A    between atoms: _550  and  _553
REMARK  227  A    between atoms: _553  and  _554
REMARK                            x       y       z     vdW  Elec       q    Type
REMARK                         _______ _______ _______ _____ _____    ______ ____
ROOT
ATOM      1  O   HOH     1       5.483  28.262   6.631  0.00  0.00    +0.000 OA
ENDROOT
TORSDOF 0
REMARK  Name = ../refined-set-2016/1hxw/1hxw_pocket.pdb
REMARK  227 active torsions:
REMARK  status: ('A' for Active; 'I' for Inactive)
REMARK    1  A    between atoms: _1  and  _3
REMARK    2  A    between atoms: _3  and  _4
REMARK    3  A    between atoms: _3  and  _6
REMARK    4  A    between atoms: _6  and  _7
REMARK    5  A    between atoms: _7  and  _8
REMARK    6  A    between atoms: _8  and  _9
REMARK    7  A    between atoms: _18  and  _20
REMARK    8  A    between atoms: _20  and  _21
REMARK    9  A    between atoms: _20  and  _23
REMARK   10  A    between atoms: _23  and  _24
REMARK   11  A    between atoms: _27  and  _29
REMARK   12  A    between atoms: _29  and  _30
REMARK   13  A    between atoms: _29  and  _32
REMARK   14  A    between atoms: _32  and  _33
REMARK   15  A    between atoms: _36  and  _38
REMARK   16  A    between atoms: _38  and  _39
REMARK   17  A    between atoms: _38  and  _41
REMARK   18  A    between atoms: _41  and  _42
REMARK   19  A    between atoms: _45  and  _47
REMARK   20  A    between atoms: _47  and  _48
REMARK   21  A    between atoms: _47  and  _50
REMARK   22  A    between atoms: _50  and  _51
REMARK   23  A    between atoms: _54  and  _56
REMARK   24  A    between atoms: _56  and  _57
REMARK   25  A    between atoms: _59  and  _61
REMARK   26  A    between atoms: _61  and  _62
REMARK   27  A    between atoms: _65  and  _67
REMARK   28  A    between atoms: _67  and  _68
REMARK   29  A    between atoms: _67  and  _70
REMARK   30  A    between atoms: _70  and  _71
REMARK   31  A    between atoms: _74  and  _76
REMARK   32  A    between atoms: _76  and  _77
REMARK   33  A    between atoms: _76  and  _79
REMARK   34  A    between atoms: _79  and  _80
REMARK   35  A    between atoms: _83  and  _85
REMARK   36  A    between atoms: _85  and  _86
REMARK   37  A    between atoms: _85  and  _88
REMARK   38  A    between atoms: _88  and  _89
REMARK   39  A    between atoms: _92  and  _94
REMARK   40  A    between atoms: _94  and  _95
REMARK   41  A    between atoms: _94  and  _97
REMARK   42  A    between atoms: _100  and  _102
REMARK   43  A    between atoms: _102  and  _103
REMARK   44  A    between atoms: _102  and  _105
REMARK   45  A    between atoms: _105  and  _106
REMARK   46  A    between atoms: _106  and  _107
REMARK   47  A    between atoms: _107  and  _108
REMARK   48  A    between atoms: _108  and  _109
REMARK   49  A    between atoms: _113  and  _115
REMARK   50  A    between atoms: _115  and  _116
REMARK   51  A    between atoms: _115  and  _118
REMARK   52  A    between atoms: _118  and  _119
REMARK   53  A    between atoms: _119  and  _120
REMARK   54  A    between atoms: _122  and  _124
REMARK   55  A    between atoms: _124  and  _125
REMARK   56  A    between atoms: _124  and  _127
REMARK   57  A    between atoms: _127  and  _128
REMARK   58  A    between atoms: _131  and  _133
REMARK   59  A    between atoms: _133  and  _134
REMARK   60  A    between atoms: _136  and  _138
REMARK   61  A    between atoms: _138  and  _139
REMARK   62  A    between atoms: _141  and  _143
REMARK   63  A    between atoms: _143  and  _144
REMARK   64  A    between atoms: _143  and  _146
REMARK   65  A    between atoms: _146  and  _147
REMARK   66  A    between atoms: _150  and  _152
REMARK   67  A    between atoms: _152  and  _153
REMARK   68  A    between atoms: _155  and  _157
REMARK   69  A    between atoms: _157  and  _158
REMARK   70  A    between atoms: _160  and  _162
REMARK   71  A    between atoms: _162  and  _163
REMARK   72  A    between atoms: _162  and  _165
REMARK   73  A    between atoms: _165  and  _166
REMARK   74  A    between atoms: _172  and  _174
REMARK   75  A    between atoms: _174  and  _175
REMARK   76  A    between atoms: _174  and  _177
REMARK   77  A    between atoms: _177  and  _178
REMARK   78  A    between atoms: _181  and  _183
REMARK   79  A    between atoms: _183  and  _184
REMARK   80  A    between atoms: _183  and  _186
REMARK   81  A    between atoms: _186  and  _187
REMARK   82  A    between atoms: _191  and  _192
REMARK   83  A    between atoms: _197  and  _199
REMARK   84  A    between atoms: _199  and  _200
REMARK   85  A    between atoms: _199  and  _202
REMARK   86  A    between atoms: _202  and  _203
REMARK   87  A    between atoms: _207  and  _208
REMARK   88  A    between atoms: _213  and  _215
REMARK   89  A    between atoms: _215  and  _216
REMARK   90  A    between atoms: _215  and  _218
REMARK   91  A    between atoms: _221  and  _223
REMARK   92  A    between atoms: _223  and  _224
REMARK   93  A    between atoms: _223  and  _226
REMARK   94  A    between atoms: _226  and  _227
REMARK   95  A    between atoms: _232  and  _234
REMARK   96  A    between atoms: _234  and  _235
REMARK   97  A    between atoms: _234  and  _237
REMARK   98  A    between atoms: _237  and  _238
REMARK   99  A    between atoms: _241  and  _243
REMARK  100  A    between atoms: _243  and  _244
REMARK  101  A    between atoms: _246  and  _248
REMARK  102  A    between atoms: _248  and  _249
REMARK  103  A    between atoms: _248  and  _251
REMARK  104  A    between atoms: _251  and  _252
REMARK  105  A    between atoms: _252  and  _253
REMARK  106  A    between atoms: _253  and  _254
REMARK  107  A    between atoms: _263  and  _265
REMARK  108  A    between atoms: _265  and  _266
REMARK  109  A    between atoms: _265  and  _268
REMARK  110  A    between atoms: _268  and  _269
REMARK  111  A    between atoms: _269  and  _270
REMARK  112  A    between atoms: _270  and  _271
REMARK  113  A    between atoms: _280  and  _282
REMARK  114  A    between atoms: _282  and  _283
REMARK  115  A    between atoms: _282  and  _285
REMARK  116  A    between atoms: _285  and  _286
REMARK  117  A    between atoms: _289  and  _291
REMARK  118  A    between atoms: _291  and  _292
REMARK  119  A    between atoms: _291  and  _294
REMARK  120  A    between atoms: _294  and  _295
REMARK  121  A    between atoms: _298  and  _300
REMARK  122  A    between atoms: _300  and  _301
REMARK  123  A    between atoms: _300  and  _303
REMARK  124  A    between atoms: _303  and  _304
REMARK  125  A    between atoms: _307  and  _309
REMARK  126  A    between atoms: _309  and  _310
REMARK  127  A    between atoms: _309  and  _312
REMARK  128  A    between atoms: _312  and  _313
REMARK  129  A    between atoms: _316  and  _318
REMARK  130  A    between atoms: _318  and  _319
REMARK  131  A    between atoms: _318  and  _321
REMARK  132  A    between atoms: _321  and  _322
REMARK  133  A    between atoms: _325  and  _327
REMARK  134  A    between atoms: _327  and  _328
REMARK  135  A    between atoms: _330  and  _332
REMARK  136  A    between atoms: _332  and  _333
REMARK  137  A    between atoms: _336  and  _338
REMARK  138  A    between atoms: _338  and  _339
REMARK  139  A    between atoms: _338  and  _341
REMARK  140  A    between atoms: _341  and  _342
REMARK  141  A    between atoms: _345  and  _347
REMARK  142  A    between atoms: _347  and  _348
REMARK  143  A    between atoms: _347  and  _350
REMARK  144  A    between atoms: _350  and  _351
REMARK  145  A    between atoms: _354  and  _356
REMARK  146  A    between atoms: _356  and  _357
REMARK  147  A    between atoms: _356  and  _359
REMARK  148  A    between atoms: _359  and  _360
REMARK  149  A    between atoms: _363  and  _365
REMARK  150  A    between atoms: _365  and  _366
REMARK  151  A    between atoms: _365  and  _368
REMARK  152  A    between atoms: _371  and  _373
REMARK  153  A    between atoms: _373  and  _374
REMARK  154  A    between atoms: _373  and  _376
REMARK  155  A    between atoms: _376  and  _377
REMARK  156  A    between atoms: _380  and  _382
REMARK  157  A    between atoms: _382  and  _383
REMARK  158  A    between atoms: _382  and  _385
REMARK  159  A    between atoms: _385  and  _386
REMARK  160  A    between atoms: _386  and  _387
REMARK  161  A    between atoms: _387  and  _388
REMARK  162  A    between atoms: _388  and  _389
REMARK  163  A    between atoms: _393  and  _395
REMARK  164  A    between atoms: _395  and  _396
REMARK  165  A    between atoms: _395  and  _398
REMARK  166  A    between atoms: _398  and  _399
REMARK  167  A    between atoms: _399  and  _400
REMARK  168  A    between atoms: _402  and  _404
REMARK  169  A    between atoms: _404  and  _405
REMARK  170  A    between atoms: _404  and  _407
REMARK  171  A    between atoms: _407  and  _408
REMARK  172  A    between atoms: _411  and  _413
REMARK  173  A    between atoms: _413  and  _414
REMARK  174  A    between atoms: _416  and  _418
REMARK  175  A    between atoms: _418  and  _419
REMARK  176  A    between atoms: _421  and  _423
REMARK  177  A    between atoms: _423  and  _424
REMARK  178  A    between atoms: _423  and  _426
REMARK  179  A    between atoms: _426  and  _427
REMARK  180  A    between atoms: _430  and  _432
REMARK  181  A    between atoms: _432  and  _433
REMARK  182  A    between atoms: _435  and  _437
REMARK  183  A    between atoms: _437  and  _438
REMARK  184  A    between atoms: _440  and  _442
REMARK  185  A    between atoms: _442  and  _443
REMARK  186  A    between atoms: _442  and  _445
REMARK  187  A    between atoms: _445  and  _446
REMARK  188  A    between atoms: _449  and  _451
REMARK  189  A    between atoms: _451  and  _452
REMARK  190  A    between atoms: _451  and  _454
REMARK  191  A    between atoms: _457  and  _459
REMARK  192  A    between atoms: _459  and  _460
REMARK  193  A    between atoms: _459  and  _462
REMARK  194  A    between atoms: _462  and  _463
REMARK  195  A    between atoms: _467  and  _468
REMARK  196  A    between atoms: _473  and  _475
REMARK  197  A    between atoms: _475  and  _476
REMARK  198  A    between atoms: _475  and  _478
REMARK  199  A    between atoms: _478  and  _479
REMARK  200  A    between atoms: _483  and  _484
REMARK  201  A    between atoms: _489  and  _491
REMARK  202  A    between atoms: _491  and  _492
REMARK  203  A    between atoms: _491  and  _494
REMARK  204  A    between atoms: _497  and  _499
REMARK  205  A    between atoms: _499  and  _500
REMARK  206  A    between atoms: _499  and  _502
REMARK  207  A    between atoms: _502  and  _503
REMARK  208  A    between atoms: _508  and  _510
REMARK  209  A    between atoms: _510  and  _511
REMARK  210  A    between atoms: _510  and  _513
REMARK  211  A    between atoms: _513  and  _514
REMARK  212  A    between atoms: _517  and  _519
REMARK  213  A    between atoms: _519  and  _520
REMARK  214  A    between atoms: _519  and  _522
REMARK  215  A    between atoms: _522  and  _523
REMARK  216  A    between atoms: _526  and  _528
REMARK  217  A    between atoms: _528  and  _529
REMARK  218  A    between atoms: _531  and  _533
REMARK  219  A    between atoms: _533  and  _534
REMARK  220  A    between atoms: _533  and  _536
REMARK  221  A    between atoms: _536  and  _537
REMARK  222  A    between atoms: _537  and  _538
REMARK  223  A    between atoms: _538  and  _539
REMARK  224  A    between atoms: _548  and  _550
REMARK  225  A    between atoms: _550  and  _551
REMARK  226  A    between atoms: _550  and  _553
REMARK  227  A    between atoms: _553  and  _554
REMARK                            x       y       z     vdW  Elec       q    Type
REMARK                         _______ _______ _______ _____ _____    ______ ____
ROOT
ATOM      1  O   HOH     1      10.725  20.624   5.870  0.00  0.00    +0.000 OA
ENDROOT
TORSDOF 0
REMARK  Name = ../refined-set-2016/1hxw/1hxw_pocket.pdb
REMARK  227 active torsions:
REMARK  status: ('A' for Active; 'I' for Inactive)
REMARK    1  A    between atoms: _1  and  _3
REMARK    2  A    between atoms: _3  and  _4
REMARK    3  A    between atoms: _3  and  _6
REMARK    4  A    between atoms: _6  and  _7
REMARK    5  A    between atoms: _7  and  _8
REMARK    6  A    between atoms: _8  and  _9
REMARK    7  A    between atoms: _18  and  _20
REMARK    8  A    between atoms: _20  and  _21
REMARK    9  A    between atoms: _20  and  _23
REMARK   10  A    between atoms: _23  and  _24
REMARK   11  A    between atoms: _27  and  _29
REMARK   12  A    between atoms: _29  and  _30
REMARK   13  A    between atoms: _29  and  _32
REMARK   14  A    between atoms: _32  and  _33
REMARK   15  A    between atoms: _36  and  _38
REMARK   16  A    between atoms: _38  and  _39
REMARK   17  A    between atoms: _38  and  _41
REMARK   18  A    between atoms: _41  and  _42
REMARK   19  A    between atoms: _45  and  _47
REMARK   20  A    between atoms: _47  and  _48
REMARK   21  A    between atoms: _47  and  _50
REMARK   22  A    between atoms: _50  and  _51
REMARK   23  A    between atoms: _54  and  _56
REMARK   24  A    between atoms: _56  and  _57
REMARK   25  A    between atoms: _59  and  _61
REMARK   26  A    between atoms: _61  and  _62
REMARK   27  A    between atoms: _65  and  _67
REMARK   28  A    between atoms: _67  and  _68
REMARK   29  A    between atoms: _67  and  _70
REMARK   30  A    between atoms: _70  and  _71
REMARK   31  A    between atoms: _74  and  _76
REMARK   32  A    between atoms: _76  and  _77
REMARK   33  A    between atoms: _76  and  _79
REMARK   34  A    between atoms: _79  and  _80
REMARK   35  A    between atoms: _83  and  _85
REMARK   36  A    between atoms: _85  and  _86
REMARK   37  A    between atoms: _85  and  _88
REMARK   38  A    between atoms: _88  and  _89
REMARK   39  A    between atoms: _92  and  _94
REMARK   40  A    between atoms: _94  and  _95
REMARK   41  A    between atoms: _94  and  _97
REMARK   42  A    between atoms: _100  and  _102
REMARK   43  A    between atoms: _102  and  _103
REMARK   44  A    between atoms: _102  and  _105
REMARK   45  A    between atoms: _105  and  _106
REMARK   46  A    between atoms: _106  and  _107
REMARK   47  A    between atoms: _107  and  _108
REMARK   48  A    between atoms: _108  and  _109
REMARK   49  A    between atoms: _113  and  _115
REMARK   50  A    between atoms: _115  and  _116
REMARK   51  A    between atoms: _115  and  _118
REMARK   52  A    between atoms: _118  and  _119
REMARK   53  A    between atoms: _119  and  _120
REMARK   54  A    between atoms: _122  and  _124
REMARK   55  A    between atoms: _124  and  _125
REMARK   56  A    between atoms: _124  and  _127
REMARK   57  A    between atoms: _127  and  _128
REMARK   58  A    between atoms: _131  and  _133
REMARK   59  A    between atoms: _133  and  _134
REMARK   60  A    between atoms: _136  and  _138
REMARK   61  A    between atoms: _138  and  _139
REMARK   62  A    between atoms: _141  and  _143
REMARK   63  A    between atoms: _143  and  _144
REMARK   64  A    between atoms: _143  and  _146
REMARK   65  A    between atoms: _146  and  _147
REMARK   66  A    between atoms: _150  and  _152
REMARK   67  A    between atoms: _152  and  _153
REMARK   68  A    between atoms: _155  and  _157
REMARK   69  A    between atoms: _157  and  _158
REMARK   70  A    between atoms: _160  and  _162
REMARK   71  A    between atoms: _162  and  _163
REMARK   72  A    between atoms: _162  and  _165
REMARK   73  A    between atoms: _165  and  _166
REMARK   74  A    between atoms: _172  and  _174
REMARK   75  A    between atoms: _174  and  _175
REMARK   76  A    between atoms: _174  and  _177
REMARK   77  A    between atoms: _177  and  _178
REMARK   78  A    between atoms: _181  and  _183
REMARK   79  A    between atoms: _183  and  _184
REMARK   80  A    between atoms: _183  and  _186
REMARK   81  A    between atoms: _186  and  _187
REMARK   82  A    between atoms: _191  and  _192
REMARK   83  A    between atoms: _197  and  _199
REMARK   84  A    between atoms: _199  and  _200
REMARK   85  A    between atoms: _199  and  _202
REMARK   86  A    between atoms: _202  and  _203
REMARK   87  A    between atoms: _207  and  _208
REMARK   88  A    between atoms: _213  and  _215
REMARK   89  A    between atoms: _215  and  _216
REMARK   90  A    between atoms: _215  and  _218
REMARK   91  A    between atoms: _221  and  _223
REMARK   92  A    between atoms: _223  and  _224
REMARK   93  A    between atoms: _223  and  _226
REMARK   94  A    between atoms: _226  and  _227
REMARK   95  A    between atoms: _232  and  _234
REMARK   96  A    between atoms: _234  and  _235
REMARK   97  A    between atoms: _234  and  _237
REMARK   98  A    between atoms: _237  and  _238
REMARK   99  A    between atoms: _241  and  _243
REMARK  100  A    between atoms: _243  and  _244
REMARK  101  A    between atoms: _246  and  _248
REMARK  102  A    between atoms: _248  and  _249
REMARK  103  A    between atoms: _248  and  _251
REMARK  104  A    between atoms: _251  and  _252
REMARK  105  A    between atoms: _252  and  _253
REMARK  106  A    between atoms: _253  and  _254
REMARK  107  A    between atoms: _263  and  _265
REMARK  108  A    between atoms: _265  and  _266
REMARK  109  A    between atoms: _265  and  _268
REMARK  110  A    between atoms: _268  and  _269
REMARK  111  A    between atoms: _269  and  _270
REMARK  112  A    between atoms: _270  and  _271
REMARK  113  A    between atoms: _280  and  _282
REMARK  114  A    between atoms: _282  and  _283
REMARK  115  A    between atoms: _282  and  _285
REMARK  116  A    between atoms: _285  and  _286
REMARK  117  A    between atoms: _289  and  _291
REMARK  118  A    between atoms: _291  and  _292
REMARK  119  A    between atoms: _291  and  _294
REMARK  120  A    between atoms: _294  and  _295
REMARK  121  A    between atoms: _298  and  _300
REMARK  122  A    between atoms: _300  and  _301
REMARK  123  A    between atoms: _300  and  _303
REMARK  124  A    between atoms: _303  and  _304
REMARK  125  A    between atoms: _307  and  _309
REMARK  126  A    between atoms: _309  and  _310
REMARK  127  A    between atoms: _309  and  _312
REMARK  128  A    between atoms: _312  and  _313
REMARK  129  A    between atoms: _316  and  _318
REMARK  130  A    between atoms: _318  and  _319
REMARK  131  A    between atoms: _318  and  _321
REMARK  132  A    between atoms: _321  and  _322
REMARK  133  A    between atoms: _325  and  _327
REMARK  134  A    between atoms: _327  and  _328
REMARK  135  A    between atoms: _330  and  _332
REMARK  136  A    between atoms: _332  and  _333
REMARK  137  A    between atoms: _336  and  _338
REMARK  138  A    between atoms: _338  and  _339
REMARK  139  A    between atoms: _338  and  _341
REMARK  140  A    between atoms: _341  and  _342
REMARK  141  A    between atoms: _345  and  _347
REMARK  142  A    between atoms: _347  and  _348
REMARK  143  A    between atoms: _347  and  _350
REMARK  144  A    between atoms: _350  and  _351
REMARK  145  A    between atoms: _354  and  _356
REMARK  146  A    between atoms: _356  and  _357
REMARK  147  A    between atoms: _356  and  _359
REMARK  148  A    between atoms: _359  and  _360
REMARK  149  A    between atoms: _363  and  _365
REMARK  150  A    between atoms: _365  and  _366
REMARK  151  A    between atoms: _365  and  _368
REMARK  152  A    between atoms: _371  and  _373
REMARK  153  A    between atoms: _373  and  _374
REMARK  154  A    between atoms: _373  and  _376
REMARK  155  A    between atoms: _376  and  _377
REMARK  156  A    between atoms: _380  and  _382
REMARK  157  A    between atoms: _382  and  _383
REMARK  158  A    between atoms: _382  and  _385
REMARK  159  A    between atoms: _385  and  _386
REMARK  160  A    between atoms: _386  and  _387
REMARK  161  A    between atoms: _387  and  _388
REMARK  162  A    between atoms: _388  and  _389
REMARK  163  A    between atoms: _393  and  _395
REMARK  164  A    between atoms: _395  and  _396
REMARK  165  A    between atoms: _395  and  _398
REMARK  166  A    between atoms: _398  and  _399
REMARK  167  A    between atoms: _399  and  _400
REMARK  168  A    between atoms: _402  and  _404
REMARK  169  A    between atoms: _404  and  _405
REMARK  170  A    between atoms: _404  and  _407
REMARK  171  A    between atoms: _407  and  _408
REMARK  172  A    between atoms: _411  and  _413
REMARK  173  A    between atoms: _413  and  _414
REMARK  174  A    between atoms: _416  and  _418
REMARK  175  A    between atoms: _418  and  _419
REMARK  176  A    between atoms: _421  and  _423
REMARK  177  A    between atoms: _423  and  _424
REMARK  178  A    between atoms: _423  and  _426
REMARK  179  A    between atoms: _426  and  _427
REMARK  180  A    between atoms: _430  and  _432
REMARK  181  A    between atoms: _432  and  _433
REMARK  182  A    between atoms: _435  and  _437
REMARK  183  A    between atoms: _437  and  _438
REMARK  184  A    between atoms: _440  and  _442
REMARK  185  A    between atoms: _442  and  _443
REMARK  186  A    between atoms: _442  and  _445
REMARK  187  A    between atoms: _445  and  _446
REMARK  188  A    between atoms: _449  and  _451
REMARK  189  A    between atoms: _451  and  _452
REMARK  190  A    between atoms: _451  and  _454
REMARK  191  A    between atoms: _457  and  _459
REMARK  192  A    between atoms: _459  and  _460
REMARK  193  A    between atoms: _459  and  _462
REMARK  194  A    between atoms: _462  and  _463
REMARK  195  A    between atoms: _467  and  _468
REMARK  196  A    between atoms: _473  and  _475
REMARK  197  A    between atoms: _475  and  _476
REMARK  198  A    between atoms: _475  and  _478
REMARK  199  A    between atoms: _478  and  _479
REMARK  200  A    between atoms: _483  and  _484
REMARK  201  A    between atoms: _489  and  _491
REMARK  202  A    between atoms: _491  and  _492
REMARK  203  A    between atoms: _491  and  _494
REMARK  204  A    between atoms: _497  and  _499
REMARK  205  A    between atoms: _499  and  _500
REMARK  206  A    between atoms: _499  and  _502
REMARK  207  A    between atoms: _502  and  _503
REMARK  208  A    between atoms: _508  and  _510
REMARK  209  A    between atoms: _510  and  _511
REMARK  210  A    between atoms: _510  and  _513
REMARK  211  A    between atoms: _513  and  _514
REMARK  212  A    between atoms: _517  and  _519
REMARK  213  A    between atoms: _519  and  _520
REMARK  214  A    between atoms: _519  and  _522
REMARK  215  A    between atoms: _522  and  _523
REMARK  216  A    between atoms: _526  and  _528
REMARK  217  A    between atoms: _528  and  _529
REMARK  218  A    between atoms: _531  and  _533
REMARK  219  A    between atoms: _533  and  _534
REMARK  220  A    between atoms: _533  and  _536
REMARK  221  A    between atoms: _536  and  _537
REMARK  222  A    between atoms: _537  and  _538
REMARK  223  A    between atoms: _538  and  _539
REMARK  224  A    between atoms: _548  and  _550
REMARK  225  A    between atoms: _550  and  _551
REMARK  226  A    between atoms: _550  and  _553
REMARK  227  A    between atoms: _553  and  _554
REMARK                            x       y       z     vdW  Elec       q    Type
REMARK                         _______ _______ _______ _____ _____    ______ ____
ROOT
ATOM      1  O   HOH     1      21.776  23.154   4.776  0.00  0.00    +0.000 OA
ENDROOT
TORSDOF 0
REMARK  Name = ../refined-set-2016/1hxw/1hxw_pocket.pdb
REMARK  227 active torsions:
REMARK  status: ('A' for Active; 'I' for Inactive)
REMARK    1  A    between atoms: _1  and  _3
REMARK    2  A    between atoms: _3  and  _4
REMARK    3  A    between atoms: _3  and  _6
REMARK    4  A    between atoms: _6  and  _7
REMARK    5  A    between atoms: _7  and  _8
REMARK    6  A    between atoms: _8  and  _9
REMARK    7  A    between atoms: _18  and  _20
REMARK    8  A    between atoms: _20  and  _21
REMARK    9  A    between atoms: _20  and  _23
REMARK   10  A    between atoms: _23  and  _24
REMARK   11  A    between atoms: _27  and  _29
REMARK   12  A    between atoms: _29  and  _30
REMARK   13  A    between atoms: _29  and  _32
REMARK   14  A    between atoms: _32  and  _33
REMARK   15  A    between atoms: _36  and  _38
REMARK   16  A    between atoms: _38  and  _39
REMARK   17  A    between atoms: _38  and  _41
REMARK   18  A    between atoms: _41  and  _42
REMARK   19  A    between atoms: _45  and  _47
REMARK   20  A    between atoms: _47  and  _48
REMARK   21  A    between atoms: _47  and  _50
REMARK   22  A    between atoms: _50  and  _51
REMARK   23  A    between atoms: _54  and  _56
REMARK   24  A    between atoms: _56  and  _57
REMARK   25  A    between atoms: _59  and  _61
REMARK   26  A    between atoms: _61  and  _62
REMARK   27  A    between atoms: _65  and  _67
REMARK   28  A    between atoms: _67  and  _68
REMARK   29  A    between atoms: _67  and  _70
REMARK   30  A    between atoms: _70  and  _71
REMARK   31  A    between atoms: _74  and  _76
REMARK   32  A    between atoms: _76  and  _77
REMARK   33  A    between atoms: _76  and  _79
REMARK   34  A    between atoms: _79  and  _80
REMARK   35  A    between atoms: _83  and  _85
REMARK   36  A    between atoms: _85  and  _86
REMARK   37  A    between atoms: _85  and  _88
REMARK   38  A    between atoms: _88  and  _89
REMARK   39  A    between atoms: _92  and  _94
REMARK   40  A    between atoms: _94  and  _95
REMARK   41  A    between atoms: _94  and  _97
REMARK   42  A    between atoms: _100  and  _102
REMARK   43  A    between atoms: _102  and  _103
REMARK   44  A    between atoms: _102  and  _105
REMARK   45  A    between atoms: _105  and  _106
REMARK   46  A    between atoms: _106  and  _107
REMARK   47  A    between atoms: _107  and  _108
REMARK   48  A    between atoms: _108  and  _109
REMARK   49  A    between atoms: _113  and  _115
REMARK   50  A    between atoms: _115  and  _116
REMARK   51  A    between atoms: _115  and  _118
REMARK   52  A    between atoms: _118  and  _119
REMARK   53  A    between atoms: _119  and  _120
REMARK   54  A    between atoms: _122  and  _124
REMARK   55  A    between atoms: _124  and  _125
REMARK   56  A    between atoms: _124  and  _127
REMARK   57  A    between atoms: _127  and  _128
REMARK   58  A    between atoms: _131  and  _133
REMARK   59  A    between atoms: _133  and  _134
REMARK   60  A    between atoms: _136  and  _138
REMARK   61  A    between atoms: _138  and  _139
REMARK   62  A    between atoms: _141  and  _143
REMARK   63  A    between atoms: _143  and  _144
REMARK   64  A    between atoms: _143  and  _146
REMARK   65  A    between atoms: _146  and  _147
REMARK   66  A    between atoms: _150  and  _152
REMARK   67  A    between atoms: _152  and  _153
REMARK   68  A    between atoms: _155  and  _157
REMARK   69  A    between atoms: _157  and  _158
REMARK   70  A    between atoms: _160  and  _162
REMARK   71  A    between atoms: _162  and  _163
REMARK   72  A    between atoms: _162  and  _165
REMARK   73  A    between atoms: _165  and  _166
REMARK   74  A    between atoms: _172  and  _174
REMARK   75  A    between atoms: _174  and  _175
REMARK   76  A    between atoms: _174  and  _177
REMARK   77  A    between atoms: _177  and  _178
REMARK   78  A    between atoms: _181  and  _183
REMARK   79  A    between atoms: _183  and  _184
REMARK   80  A    between atoms: _183  and  _186
REMARK   81  A    between atoms: _186  and  _187
REMARK   82  A    between atoms: _191  and  _192
REMARK   83  A    between atoms: _197  and  _199
REMARK   84  A    between atoms: _199  and  _200
REMARK   85  A    between atoms: _199  and  _202
REMARK   86  A    between atoms: _202  and  _203
REMARK   87  A    between atoms: _207  and  _208
REMARK   88  A    between atoms: _213  and  _215
REMARK   89  A    between atoms: _215  and  _216
REMARK   90  A    between atoms: _215  and  _218
REMARK   91  A    between atoms: _221  and  _223
REMARK   92  A    between atoms: _223  and  _224
REMARK   93  A    between atoms: _223  and  _226
REMARK   94  A    between atoms: _226  and  _227
REMARK   95  A    between atoms: _232  and  _234
REMARK   96  A    between atoms: _234  and  _235
REMARK   97  A    between atoms: _234  and  _237
REMARK   98  A    between atoms: _237  and  _238
REMARK   99  A    between atoms: _241  and  _243
REMARK  100  A    between atoms: _243  and  _244
REMARK  101  A    between atoms: _246  and  _248
REMARK  102  A    between atoms: _248  and  _249
REMARK  103  A    between atoms: _248  and  _251
REMARK  104  A    between atoms: _251  and  _252
REMARK  105  A    between atoms: _252  and  _253
REMARK  106  A    between atoms: _253  and  _254
REMARK  107  A    between atoms: _263  and  _265
REMARK  108  A    between atoms: _265  and  _266
REMARK  109  A    between atoms: _265  and  _268
REMARK  110  A    between atoms: _268  and  _269
REMARK  111  A    between atoms: _269  and  _270
REMARK  112  A    between atoms: _270  and  _271
REMARK  113  A    between atoms: _280  and  _282
REMARK  114  A    between atoms: _282  and  _283
REMARK  115  A    between atoms: _282  and  _285
REMARK  116  A    between atoms: _285  and  _286
REMARK  117  A    between atoms: _289  and  _291
REMARK  118  A    between atoms: _291  and  _292
REMARK  119  A    between atoms: _291  and  _294
REMARK  120  A    between atoms: _294  and  _295
REMARK  121  A    between atoms: _298  and  _300
REMARK  122  A    between atoms: _300  and  _301
REMARK  123  A    between atoms: _300  and  _303
REMARK  124  A    between atoms: _303  and  _304
REMARK  125  A    between atoms: _307  and  _309
REMARK  126  A    between atoms: _309  and  _310
REMARK  127  A    between atoms: _309  and  _312
REMARK  128  A    between atoms: _312  and  _313
REMARK  129  A    between atoms: _316  and  _318
REMARK  130  A    between atoms: _318  and  _319
REMARK  131  A    between atoms: _318  and  _321
REMARK  132  A    between atoms: _321  and  _322
REMARK  133  A    between atoms: _325  and  _327
REMARK  134  A    between atoms: _327  and  _328
REMARK  135  A    between atoms: _330  and  _332
REMARK  136  A    between atoms: _332  and  _333
REMARK  137  A    between atoms: _336  and  _338
REMARK  138  A    between atoms: _338  and  _339
REMARK  139  A    between atoms: _338  and  _341
REMARK  140  A    between atoms: _341  and  _342
REMARK  141  A    between atoms: _345  and  _347
REMARK  142  A    between atoms: _347  and  _348
REMARK  143  A    between atoms: _347  and  _350
REMARK  144  A    between atoms: _350  and  _351
REMARK  145  A    between atoms: _354  and  _356
REMARK  146  A    between atoms: _356  and  _357
REMARK  147  A    between atoms: _356  and  _359
REMARK  148  A    between atoms: _359  and  _360
REMARK  149  A    between atoms: _363  and  _365
REMARK  150  A    between atoms: _365  and  _366
REMARK  151  A    between atoms: _365  and  _368
REMARK  152  A    between atoms: _371  and  _373
REMARK  153  A    between atoms: _373  and  _374
REMARK  154  A    between atoms: _373  and  _376
REMARK  155  A    between atoms: _376  and  _377
REMARK  156  A    between atoms: _380  and  _382
REMARK  157  A    between atoms: _382  and  _383
REMARK  158  A    between atoms: _382  and  _385
REMARK  159  A    between atoms: _385  and  _386
REMARK  160  A    between atoms: _386  and  _387
REMARK  161  A    between atoms: _387  and  _388
REMARK  162  A    between atoms: _388  and  _389
REMARK  163  A    between atoms: _393  and  _395
REMARK  164  A    between atoms: _395  and  _396
REMARK  165  A    between atoms: _395  and  _398
REMARK  166  A    between atoms: _398  and  _399
REMARK  167  A    between atoms: _399  and  _400
REMARK  168  A    between atoms: _402  and  _404
REMARK  169  A    between atoms: _404  and  _405
REMARK  170  A    between atoms: _404  and  _407
REMARK  171  A    between atoms: _407  and  _408
REMARK  172  A    between atoms: _411  and  _413
REMARK  173  A    between atoms: _413  and  _414
REMARK  174  A    between atoms: _416  and  _418
REMARK  175  A    between atoms: _418  and  _419
REMARK  176  A    between atoms: _421  and  _423
REMARK  177  A    between atoms: _423  and  _424
REMARK  178  A    between atoms: _423  and  _426
REMARK  179  A    between atoms: _426  and  _427
REMARK  180  A    between atoms: _430  and  _432
REMARK  181  A    between atoms: _432  and  _433
REMARK  182  A    between atoms: _435  and  _437
REMARK  183  A    between atoms: _437  and  _438
REMARK  184  A    between atoms: _440  and  _442
REMARK  185  A    between atoms: _442  and  _443
REMARK  186  A    between atoms: _442  and  _445
REMARK  187  A    between atoms: _445  and  _446
REMARK  188  A    between atoms: _449  and  _451
REMARK  189  A    between atoms: _451  and  _452
REMARK  190  A    between atoms: _451  and  _454
REMARK  191  A    between atoms: _457  and  _459
REMARK  192  A    between atoms: _459  and  _460
REMARK  193  A    between atoms: _459  and  _462
REMARK  194  A    between atoms: _462  and  _463
REMARK  195  A    between atoms: _467  and  _468
REMARK  196  A    between atoms: _473  and  _475
REMARK  197  A    between atoms: _475  and  _476
REMARK  198  A    between atoms: _475  and  _478
REMARK  199  A    between atoms: _478  and  _479
REMARK  200  A    between atoms: _483  and  _484
REMARK  201  A    between atoms: _489  and  _491
REMARK  202  A    between atoms: _491  and  _492
REMARK  203  A    between atoms: _491  and  _494
REMARK  204  A    between atoms: _497  and  _499
REMARK  205  A    between atoms: _499  and  _500
REMARK  206  A    between atoms: _499  and  _502
REMARK  207  A    between atoms: _502  and  _503
REMARK  208  A    between atoms: _508  and  _510
REMARK  209  A    between atoms: _510  and  _511
REMARK  210  A    between atoms: _510  and  _513
REMARK  211  A    between atoms: _513  and  _514
REMARK  212  A    between atoms: _517  and  _519
REMARK  213  A    between atoms: _519  and  _520
REMARK  214  A    between atoms: _519  and  _522
REMARK  215  A    between atoms: _522  and  _523
REMARK  216  A    between atoms: _526  and  _528
REMARK  217  A    between atoms: _528  and  _529
REMARK  218  A    between atoms: _531  and  _533
REMARK  219  A    between atoms: _533  and  _534
REMARK  220  A    between atoms: _533  and  _536
REMARK  221  A    between atoms: _536  and  _537
REMARK  222  A    between atoms: _537  and  _538
REMARK  223  A    between atoms: _538  and  _539
REMARK  224  A    between atoms: _548  and  _550
REMARK  225  A    between atoms: _550  and  _551
REMARK  226  A    between atoms: _550  and  _553
REMARK  227  A    between atoms: _553  and  _554
REMARK                            x       y       z     vdW  Elec       q    Type
REMARK                         _______ _______ _______ _____ _____    ______ ____
ROOT
ATOM      1  O   HOH     1      21.025  15.597  -3.790  0.00  0.00    +0.000 OA
ENDROOT
TORSDOF 0
REMARK  Name = ../refined-set-2016/1hxw/1hxw_pocket.pdb
REMARK  227 active torsions:
REMARK  status: ('A' for Active; 'I' for Inactive)
REMARK    1  A    between atoms: _1  and  _3
REMARK    2  A    between atoms: _3  and  _4
REMARK    3  A    between atoms: _3  and  _6
REMARK    4  A    between atoms: _6  and  _7
REMARK    5  A    between atoms: _7  and  _8
REMARK    6  A    between atoms: _8  and  _9
REMARK    7  A    between atoms: _18  and  _20
REMARK    8  A    between atoms: _20  and  _21
REMARK    9  A    between atoms: _20  and  _23
REMARK   10  A    between atoms: _23  and  _24
REMARK   11  A    between atoms: _27  and  _29
REMARK   12  A    between atoms: _29  and  _30
REMARK   13  A    between atoms: _29  and  _32
REMARK   14  A    between atoms: _32  and  _33
REMARK   15  A    between atoms: _36  and  _38
REMARK   16  A    between atoms: _38  and  _39
REMARK   17  A    between atoms: _38  and  _41
REMARK   18  A    between atoms: _41  and  _42
REMARK   19  A    between atoms: _45  and  _47
REMARK   20  A    between atoms: _47  and  _48
REMARK   21  A    between atoms: _47  and  _50
REMARK   22  A    between atoms: _50  and  _51
REMARK   23  A    between atoms: _54  and  _56
REMARK   24  A    between atoms: _56  and  _57
REMARK   25  A    between atoms: _59  and  _61
REMARK   26  A    between atoms: _61  and  _62
REMARK   27  A    between atoms: _65  and  _67
REMARK   28  A    between atoms: _67  and  _68
REMARK   29  A    between atoms: _67  and  _70
REMARK   30  A    between atoms: _70  and  _71
REMARK   31  A    between atoms: _74  and  _76
REMARK   32  A    between atoms: _76  and  _77
REMARK   33  A    between atoms: _76  and  _79
REMARK   34  A    between atoms: _79  and  _80
REMARK   35  A    between atoms: _83  and  _85
REMARK   36  A    between atoms: _85  and  _86
REMARK   37  A    between atoms: _85  and  _88
REMARK   38  A    between atoms: _88  and  _89
REMARK   39  A    between atoms: _92  and  _94
REMARK   40  A    between atoms: _94  and  _95
REMARK   41  A    between atoms: _94  and  _97
REMARK   42  A    between atoms: _100  and  _102
REMARK   43  A    between atoms: _102  and  _103
REMARK   44  A    between atoms: _102  and  _105
REMARK   45  A    between atoms: _105  and  _106
REMARK   46  A    between atoms: _106  and  _107
REMARK   47  A    between atoms: _107  and  _108
REMARK   48  A    between atoms: _108  and  _109
REMARK   49  A    between atoms: _113  and  _115
REMARK   50  A    between atoms: _115  and  _116
REMARK   51  A    between atoms: _115  and  _118
REMARK   52  A    between atoms: _118  and  _119
REMARK   53  A    between atoms: _119  and  _120
REMARK   54  A    between atoms: _122  and  _124
REMARK   55  A    between atoms: _124  and  _125
REMARK   56  A    between atoms: _124  and  _127
REMARK   57  A    between atoms: _127  and  _128
REMARK   58  A    between atoms: _131  and  _133
REMARK   59  A    between atoms: _133  and  _134
REMARK   60  A    between atoms: _136  and  _138
REMARK   61  A    between atoms: _138  and  _139
REMARK   62  A    between atoms: _141  and  _143
REMARK   63  A    between atoms: _143  and  _144
REMARK   64  A    between atoms: _143  and  _146
REMARK   65  A    between atoms: _146  and  _147
REMARK   66  A    between atoms: _150  and  _152
REMARK   67  A    between atoms: _152  and  _153
REMARK   68  A    between atoms: _155  and  _157
REMARK   69  A    between atoms: _157  and  _158
REMARK   70  A    between atoms: _160  and  _162
REMARK   71  A    between atoms: _162  and  _163
REMARK   72  A    between atoms: _162  and  _165
REMARK   73  A    between atoms: _165  and  _166
REMARK   74  A    between atoms: _172  and  _174
REMARK   75  A    between atoms: _174  and  _175
REMARK   76  A    between atoms: _174  and  _177
REMARK   77  A    between atoms: _177  and  _178
REMARK   78  A    between atoms: _181  and  _183
REMARK   79  A    between atoms: _183  and  _184
REMARK   80  A    between atoms: _183  and  _186
REMARK   81  A    between atoms: _186  and  _187
REMARK   82  A    between atoms: _191  and  _192
REMARK   83  A    between atoms: _197  and  _199
REMARK   84  A    between atoms: _199  and  _200
REMARK   85  A    between atoms: _199  and  _202
REMARK   86  A    between atoms: _202  and  _203
REMARK   87  A    between atoms: _207  and  _208
REMARK   88  A    between atoms: _213  and  _215
REMARK   89  A    between atoms: _215  and  _216
REMARK   90  A    between atoms: _215  and  _218
REMARK   91  A    between atoms: _221  and  _223
REMARK   92  A    between atoms: _223  and  _224
REMARK   93  A    between atoms: _223  and  _226
REMARK   94  A    between atoms: _226  and  _227
REMARK   95  A    between atoms: _232  and  _234
REMARK   96  A    between atoms: _234  and  _235
REMARK   97  A    between atoms: _234  and  _237
REMARK   98  A    between atoms: _237  and  _238
REMARK   99  A    between atoms: _241  and  _243
REMARK  100  A    between atoms: _243  and  _244
REMARK  101  A    between atoms: _246  and  _248
REMARK  102  A    between atoms: _248  and  _249
REMARK  103  A    between atoms: _248  and  _251
REMARK  104  A    between atoms: _251  and  _252
REMARK  105  A    between atoms: _252  and  _253
REMARK  106  A    between atoms: _253  and  _254
REMARK  107  A    between atoms: _263  and  _265
REMARK  108  A    between atoms: _265  and  _266
REMARK  109  A    between atoms: _265  and  _268
REMARK  110  A    between atoms: _268  and  _269
REMARK  111  A    between atoms: _269  and  _270
REMARK  112  A    between atoms: _270  and  _271
REMARK  113  A    between atoms: _280  and  _282
REMARK  114  A    between atoms: _282  and  _283
REMARK  115  A    between atoms: _282  and  _285
REMARK  116  A    between atoms: _285  and  _286
REMARK  117  A    between atoms: _289  and  _291
REMARK  118  A    between atoms: _291  and  _292
REMARK  119  A    between atoms: _291  and  _294
REMARK  120  A    between atoms: _294  and  _295
REMARK  121  A    between atoms: _298  and  _300
REMARK  122  A    between atoms: _300  and  _301
REMARK  123  A    between atoms: _300  and  _303
REMARK  124  A    between atoms: _303  and  _304
REMARK  125  A    between atoms: _307  and  _309
REMARK  126  A    between atoms: _309  and  _310
REMARK  127  A    between atoms: _309  and  _312
REMARK  128  A    between atoms: _312  and  _313
REMARK  129  A    between atoms: _316  and  _318
REMARK  130  A    between atoms: _318  and  _319
REMARK  131  A    between atoms: _318  and  _321
REMARK  132  A    between atoms: _321  and  _322
REMARK  133  A    between atoms: _325  and  _327
REMARK  134  A    between atoms: _327  and  _328
REMARK  135  A    between atoms: _330  and  _332
REMARK  136  A    between atoms: _332  and  _333
REMARK  137  A    between atoms: _336  and  _338
REMARK  138  A    between atoms: _338  and  _339
REMARK  139  A    between atoms: _338  and  _341
REMARK  140  A    between atoms: _341  and  _342
REMARK  141  A    between atoms: _345  and  _347
REMARK  142  A    between atoms: _347  and  _348
REMARK  143  A    between atoms: _347  and  _350
REMARK  144  A    between atoms: _350  and  _351
REMARK  145  A    between atoms: _354  and  _356
REMARK  146  A    between atoms: _356  and  _357
REMARK  147  A    between atoms: _356  and  _359
REMARK  148  A    between atoms: _359  and  _360
REMARK  149  A    between atoms: _363  and  _365
REMARK  150  A    between atoms: _365  and  _366
REMARK  151  A    between atoms: _365  and  _368
REMARK  152  A    between atoms: _371  and  _373
REMARK  153  A    between atoms: _373  and  _374
REMARK  154  A    between atoms: _373  and  _376
REMARK  155  A    between atoms: _376  and  _377
REMARK  156  A    between atoms: _380  and  _382
REMARK  157  A    between atoms: _382  and  _383
REMARK  158  A    between atoms: _382  and  _385
REMARK  159  A    between atoms: _385  and  _386
REMARK  160  A    between atoms: _386  and  _387
REMARK  161  A    between atoms: _387  and  _388
REMARK  162  A    between atoms: _388  and  _389
REMARK  163  A    between atoms: _393  and  _395
REMARK  164  A    between atoms: _395  and  _396
REMARK  165  A    between atoms: _395  and  _398
REMARK  166  A    between atoms: _398  and  _399
REMARK  167  A    between atoms: _399  and  _400
REMARK  168  A    between atoms: _402  and  _404
REMARK  169  A    between atoms: _404  and  _405
REMARK  170  A    between atoms: _404  and  _407
REMARK  171  A    between atoms: _407  and  _408
REMARK  172  A    between atoms: _411  and  _413
REMARK  173  A    between atoms: _413  and  _414
REMARK  174  A    between atoms: _416  and  _418
REMARK  175  A    between atoms: _418  and  _419
REMARK  176  A    between atoms: _421  and  _423
REMARK  177  A    between atoms: _423  and  _424
REMARK  178  A    between atoms: _423  and  _426
REMARK  179  A    between atoms: _426  and  _427
REMARK  180  A    between atoms: _430  and  _432
REMARK  181  A    between atoms: _432  and  _433
REMARK  182  A    between atoms: _435  and  _437
REMARK  183  A    between atoms: _437  and  _438
REMARK  184  A    between atoms: _440  and  _442
REMARK  185  A    between atoms: _442  and  _443
REMARK  186  A    between atoms: _442  and  _445
REMARK  187  A    between atoms: _445  and  _446
REMARK  188  A    between atoms: _449  and  _451
REMARK  189  A    between atoms: _451  and  _452
REMARK  190  A    between atoms: _451  and  _454
REMARK  191  A    between atoms: _457  and  _459
REMARK  192  A    between atoms: _459  and  _460
REMARK  193  A    between atoms: _459  and  _462
REMARK  194  A    between atoms: _462  and  _463
REMARK  195  A    between atoms: _467  and  _468
REMARK  196  A    between atoms: _473  and  _475
REMARK  197  A    between atoms: _475  and  _476
REMARK  198  A    between atoms: _475  and  _478
REMARK  199  A    between atoms: _478  and  _479
REMARK  200  A    between atoms: _483  and  _484
REMARK  201  A    between atoms: _489  and  _491
REMARK  202  A    between atoms: _491  and  _492
REMARK  203  A    between atoms: _491  and  _494
REMARK  204  A    between atoms: _497  and  _499
REMARK  205  A    between atoms: _499  and  _500
REMARK  206  A    between atoms: _499  and  _502
REMARK  207  A    between atoms: _502  and  _503
REMARK  208  A    between atoms: _508  and  _510
REMARK  209  A    between atoms: _510  and  _511
REMARK  210  A    between atoms: _510  and  _513
REMARK  211  A    between atoms: _513  and  _514
REMARK  212  A    between atoms: _517  and  _519
REMARK  213  A    between atoms: _519  and  _520
REMARK  214  A    between atoms: _519  and  _522
REMARK  215  A    between atoms: _522  and  _523
REMARK  216  A    between atoms: _526  and  _528
REMARK  217  A    between atoms: _528  and  _529
REMARK  218  A    between atoms: _531  and  _533
REMARK  219  A    between atoms: _533  and  _534
REMARK  220  A    between atoms: _533  and  _536
REMARK  221  A    between atoms: _536  and  _537
REMARK  222  A    between atoms: _537  and  _538
REMARK  223  A    between atoms: _538  and  _539
REMARK  224  A    between atoms: _548  and  _550
REMARK  225  A    between atoms: _550  and  _551
REMARK  226  A    between atoms: _550  and  _553
REMARK  227  A    between atoms: _553  and  _554
REMARK                            x       y       z     vdW  Elec       q    Type
REMARK                         _______ _______ _______ _____ _____    ______ ____
ROOT
ATOM      1  O   HOH     1       7.881  23.062  -7.137  0.00  0.00    +0.000 OA
ENDROOT
TORSDOF 0
REMARK  Name = ../refined-set-2016/1hxw/1hxw_pocket.pdb
REMARK  227 active torsions:
REMARK  status: ('A' for Active; 'I' for Inactive)
REMARK    1  A    between atoms: _1  and  _3
REMARK    2  A    between atoms: _3  and  _4
REMARK    3  A    between atoms: _3  and  _6
REMARK    4  A    between atoms: _6  and  _7
REMARK    5  A    between atoms: _7  and  _8
REMARK    6  A    between atoms: _8  and  _9
REMARK    7  A    between atoms: _18  and  _20
REMARK    8  A    between atoms: _20  and  _21
REMARK    9  A    between atoms: _20  and  _23
REMARK   10  A    between atoms: _23  and  _24
REMARK   11  A    between atoms: _27  and  _29
REMARK   12  A    between atoms: _29  and  _30
REMARK   13  A    between atoms: _29  and  _32
REMARK   14  A    between atoms: _32  and  _33
REMARK   15  A    between atoms: _36  and  _38
REMARK   16  A    between atoms: _38  and  _39
REMARK   17  A    between atoms: _38  and  _41
REMARK   18  A    between atoms: _41  and  _42
REMARK   19  A    between atoms: _45  and  _47
REMARK   20  A    between atoms: _47  and  _48
REMARK   21  A    between atoms: _47  and  _50
REMARK   22  A    between atoms: _50  and  _51
REMARK   23  A    between atoms: _54  and  _56
REMARK   24  A    between atoms: _56  and  _57
REMARK   25  A    between atoms: _59  and  _61
REMARK   26  A    between atoms: _61  and  _62
REMARK   27  A    between atoms: _65  and  _67
REMARK   28  A    between atoms: _67  and  _68
REMARK   29  A    between atoms: _67  and  _70
REMARK   30  A    between atoms: _70  and  _71
REMARK   31  A    between atoms: _74  and  _76
REMARK   32  A    between atoms: _76  and  _77
REMARK   33  A    between atoms: _76  and  _79
REMARK   34  A    between atoms: _79  and  _80
REMARK   35  A    between atoms: _83  and  _85
REMARK   36  A    between atoms: _85  and  _86
REMARK   37  A    between atoms: _85  and  _88
REMARK   38  A    between atoms: _88  and  _89
REMARK   39  A    between atoms: _92  and  _94
REMARK   40  A    between atoms: _94  and  _95
REMARK   41  A    between atoms: _94  and  _97
REMARK   42  A    between atoms: _100  and  _102
REMARK   43  A    between atoms: _102  and  _103
REMARK   44  A    between atoms: _102  and  _105
REMARK   45  A    between atoms: _105  and  _106
REMARK   46  A    between atoms: _106  and  _107
REMARK   47  A    between atoms: _107  and  _108
REMARK   48  A    between atoms: _108  and  _109
REMARK   49  A    between atoms: _113  and  _115
REMARK   50  A    between atoms: _115  and  _116
REMARK   51  A    between atoms: _115  and  _118
REMARK   52  A    between atoms: _118  and  _119
REMARK   53  A    between atoms: _119  and  _120
REMARK   54  A    between atoms: _122  and  _124
REMARK   55  A    between atoms: _124  and  _125
REMARK   56  A    between atoms: _124  and  _127
REMARK   57  A    between atoms: _127  and  _128
REMARK   58  A    between atoms: _131  and  _133
REMARK   59  A    between atoms: _133  and  _134
REMARK   60  A    between atoms: _136  and  _138
REMARK   61  A    between atoms: _138  and  _139
REMARK   62  A    between atoms: _141  and  _143
REMARK   63  A    between atoms: _143  and  _144
REMARK   64  A    between atoms: _143  and  _146
REMARK   65  A    between atoms: _146  and  _147
REMARK   66  A    between atoms: _150  and  _152
REMARK   67  A    between atoms: _152  and  _153
REMARK   68  A    between atoms: _155  and  _157
REMARK   69  A    between atoms: _157  and  _158
REMARK   70  A    between atoms: _160  and  _162
REMARK   71  A    between atoms: _162  and  _163
REMARK   72  A    between atoms: _162  and  _165
REMARK   73  A    between atoms: _165  and  _166
REMARK   74  A    between atoms: _172  and  _174
REMARK   75  A    between atoms: _174  and  _175
REMARK   76  A    between atoms: _174  and  _177
REMARK   77  A    between atoms: _177  and  _178
REMARK   78  A    between atoms: _181  and  _183
REMARK   79  A    between atoms: _183  and  _184
REMARK   80  A    between atoms: _183  and  _186
REMARK   81  A    between atoms: _186  and  _187
REMARK   82  A    between atoms: _191  and  _192
REMARK   83  A    between atoms: _197  and  _199
REMARK   84  A    between atoms: _199  and  _200
REMARK   85  A    between atoms: _199  and  _202
REMARK   86  A    between atoms: _202  and  _203
REMARK   87  A    between atoms: _207  and  _208
REMARK   88  A    between atoms: _213  and  _215
REMARK   89  A    between atoms: _215  and  _216
REMARK   90  A    between atoms: _215  and  _218
REMARK   91  A    between atoms: _221  and  _223
REMARK   92  A    between atoms: _223  and  _224
REMARK   93  A    between atoms: _223  and  _226
REMARK   94  A    between atoms: _226  and  _227
REMARK   95  A    between atoms: _232  and  _234
REMARK   96  A    between atoms: _234  and  _235
REMARK   97  A    between atoms: _234  and  _237
REMARK   98  A    between atoms: _237  and  _238
REMARK   99  A    between atoms: _241  and  _243
REMARK  100  A    between atoms: _243  and  _244
REMARK  101  A    between atoms: _246  and  _248
REMARK  102  A    between atoms: _248  and  _249
REMARK  103  A    between atoms: _248  and  _251
REMARK  104  A    between atoms: _251  and  _252
REMARK  105  A    between atoms: _252  and  _253
REMARK  106  A    between atoms: _253  and  _254
REMARK  107  A    between atoms: _263  and  _265
REMARK  108  A    between atoms: _265  and  _266
REMARK  109  A    between atoms: _265  and  _268
REMARK  110  A    between atoms: _268  and  _269
REMARK  111  A    between atoms: _269  and  _270
REMARK  112  A    between atoms: _270  and  _271
REMARK  113  A    between atoms: _280  and  _282
REMARK  114  A    between atoms: _282  and  _283
REMARK  115  A    between atoms: _282  and  _285
REMARK  116  A    between atoms: _285  and  _286
REMARK  117  A    between atoms: _289  and  _291
REMARK  118  A    between atoms: _291  and  _292
REMARK  119  A    between atoms: _291  and  _294
REMARK  120  A    between atoms: _294  and  _295
REMARK  121  A    between atoms: _298  and  _300
REMARK  122  A    between atoms: _300  and  _301
REMARK  123  A    between atoms: _300  and  _303
REMARK  124  A    between atoms: _303  and  _304
REMARK  125  A    between atoms: _307  and  _309
REMARK  126  A    between atoms: _309  and  _310
REMARK  127  A    between atoms: _309  and  _312
REMARK  128  A    between atoms: _312  and  _313
REMARK  129  A    between atoms: _316  and  _318
REMARK  130  A    between atoms: _318  and  _319
REMARK  131  A    between atoms: _318  and  _321
REMARK  132  A    between atoms: _321  and  _322
REMARK  133  A    between atoms: _325  and  _327
REMARK  134  A    between atoms: _327  and  _328
REMARK  135  A    between atoms: _330  and  _332
REMARK  136  A    between atoms: _332  and  _333
REMARK  137  A    between atoms: _336  and  _338
REMARK  138  A    between atoms: _338  and  _339
REMARK  139  A    between atoms: _338  and  _341
REMARK  140  A    between atoms: _341  and  _342
REMARK  141  A    between atoms: _345  and  _347
REMARK  142  A    between atoms: _347  and  _348
REMARK  143  A    between atoms: _347  and  _350
REMARK  144  A    between atoms: _350  and  _351
REMARK  145  A    between atoms: _354  and  _356
REMARK  146  A    between atoms: _356  and  _357
REMARK  147  A    between atoms: _356  and  _359
REMARK  148  A    between atoms: _359  and  _360
REMARK  149  A    between atoms: _363  and  _365
REMARK  150  A    between atoms: _365  and  _366
REMARK  151  A    between atoms: _365  and  _368
REMARK  152  A    between atoms: _371  and  _373
REMARK  153  A    between atoms: _373  and  _374
REMARK  154  A    between atoms: _373  and  _376
REMARK  155  A    between atoms: _376  and  _377
REMARK  156  A    between atoms: _380  and  _382
REMARK  157  A    between atoms: _382  and  _383
REMARK  158  A    between atoms: _382  and  _385
REMARK  159  A    between atoms: _385  and  _386
REMARK  160  A    between atoms: _386  and  _387
REMARK  161  A    between atoms: _387  and  _388
REMARK  162  A    between atoms: _388  and  _389
REMARK  163  A    between atoms: _393  and  _395
REMARK  164  A    between atoms: _395  and  _396
REMARK  165  A    between atoms: _395  and  _398
REMARK  166  A    between atoms: _398  and  _399
REMARK  167  A    between atoms: _399  and  _400
REMARK  168  A    between atoms: _402  and  _404
REMARK  169  A    between atoms: _404  and  _405
REMARK  170  A    between atoms: _404  and  _407
REMARK  171  A    between atoms: _407  and  _408
REMARK  172  A    between atoms: _411  and  _413
REMARK  173  A    between atoms: _413  and  _414
REMARK  174  A    between atoms: _416  and  _418
REMARK  175  A    between atoms: _418  and  _419
REMARK  176  A    between atoms: _421  and  _423
REMARK  177  A    between atoms: _423  and  _424
REMARK  178  A    between atoms: _423  and  _426
REMARK  179  A    between atoms: _426  and  _427
REMARK  180  A    between atoms: _430  and  _432
REMARK  181  A    between atoms: _432  and  _433
REMARK  182  A    between atoms: _435  and  _437
REMARK  183  A    between atoms: _437  and  _438
REMARK  184  A    between atoms: _440  and  _442
REMARK  185  A    between atoms: _442  and  _443
REMARK  186  A    between atoms: _442  and  _445
REMARK  187  A    between atoms: _445  and  _446
REMARK  188  A    between atoms: _449  and  _451
REMARK  189  A    between atoms: _451  and  _452
REMARK  190  A    between atoms: _451  and  _454
REMARK  191  A    between atoms: _457  and  _459
REMARK  192  A    between atoms: _459  and  _460
REMARK  193  A    between atoms: _459  and  _462
REMARK  194  A    between atoms: _462  and  _463
REMARK  195  A    between atoms: _467  and  _468
REMARK  196  A    between atoms: _473  and  _475
REMARK  197  A    between atoms: _475  and  _476
REMARK  198  A    between atoms: _475  and  _478
REMARK  199  A    between atoms: _478  and  _479
REMARK  200  A    between atoms: _483  and  _484
REMARK  201  A    between atoms: _489  and  _491
REMARK  202  A    between atoms: _491  and  _492
REMARK  203  A    between atoms: _491  and  _494
REMARK  204  A    between atoms: _497  and  _499
REMARK  205  A    between atoms: _499  and  _500
REMARK  206  A    between atoms: _499  and  _502
REMARK  207  A    between atoms: _502  and  _503
REMARK  208  A    between atoms: _508  and  _510
REMARK  209  A    between atoms: _510  and  _511
REMARK  210  A    between atoms: _510  and  _513
REMARK  211  A    between atoms: _513  and  _514
REMARK  212  A    between atoms: _517  and  _519
REMARK  213  A    between atoms: _519  and  _520
REMARK  214  A    between atoms: _519  and  _522
REMARK  215  A    between atoms: _522  and  _523
REMARK  216  A    between atoms: _526  and  _528
REMARK  217  A    between atoms: _528  and  _529
REMARK  218  A    between atoms: _531  and  _533
REMARK  219  A    between atoms: _533  and  _534
REMARK  220  A    between atoms: _533  and  _536
REMARK  221  A    between atoms: _536  and  _537
REMARK  222  A    between atoms: _537  and  _538
REMARK  223  A    between atoms: _538  and  _539
REMARK  224  A    between atoms: _548  and  _550
REMARK  225  A    between atoms: _550  and  _551
REMARK  226  A    between atoms: _550  and  _553
REMARK  227  A    between atoms: _553  and  _554
REMARK                            x       y       z     vdW  Elec       q    Type
REMARK                         _______ _______ _______ _____ _____    ______ ____
ROOT
ATOM      1  O   HOH     1      13.429  15.704  10.868  0.00  0.00    +0.000 OA
ENDROOT
TORSDOF 0
REMARK  Name = ../refined-set-2016/1hxw/1hxw_pocket.pdb
REMARK  227 active torsions:
REMARK  status: ('A' for Active; 'I' for Inactive)
REMARK    1  A    between atoms: _1  and  _3
REMARK    2  A    between atoms: _3  and  _4
REMARK    3  A    between atoms: _3  and  _6
REMARK    4  A    between atoms: _6  and  _7
REMARK    5  A    between atoms: _7  and  _8
REMARK    6  A    between atoms: _8  and  _9
REMARK    7  A    between atoms: _18  and  _20
REMARK    8  A    between atoms: _20  and  _21
REMARK    9  A    between atoms: _20  and  _23
REMARK   10  A    between atoms: _23  and  _24
REMARK   11  A    between atoms: _27  and  _29
REMARK   12  A    between atoms: _29  and  _30
REMARK   13  A    between atoms: _29  and  _32
REMARK   14  A    between atoms: _32  and  _33
REMARK   15  A    between atoms: _36  and  _38
REMARK   16  A    between atoms: _38  and  _39
REMARK   17  A    between atoms: _38  and  _41
REMARK   18  A    between atoms: _41  and  _42
REMARK   19  A    between atoms: _45  and  _47
REMARK   20  A    between atoms: _47  and  _48
REMARK   21  A    between atoms: _47  and  _50
REMARK   22  A    between atoms: _50  and  _51
REMARK   23  A    between atoms: _54  and  _56
REMARK   24  A    between atoms: _56  and  _57
REMARK   25  A    between atoms: _59  and  _61
REMARK   26  A    between atoms: _61  and  _62
REMARK   27  A    between atoms: _65  and  _67
REMARK   28  A    between atoms: _67  and  _68
REMARK   29  A    between atoms: _67  and  _70
REMARK   30  A    between atoms: _70  and  _71
REMARK   31  A    between atoms: _74  and  _76
REMARK   32  A    between atoms: _76  and  _77
REMARK   33  A    between atoms: _76  and  _79
REMARK   34  A    between atoms: _79  and  _80
REMARK   35  A    between atoms: _83  and  _85
REMARK   36  A    between atoms: _85  and  _86
REMARK   37  A    between atoms: _85  and  _88
REMARK   38  A    between atoms: _88  and  _89
REMARK   39  A    between atoms: _92  and  _94
REMARK   40  A    between atoms: _94  and  _95
REMARK   41  A    between atoms: _94  and  _97
REMARK   42  A    between atoms: _100  and  _102
REMARK   43  A    between atoms: _102  and  _103
REMARK   44  A    between atoms: _102  and  _105
REMARK   45  A    between atoms: _105  and  _106
REMARK   46  A    between atoms: _106  and  _107
REMARK   47  A    between atoms: _107  and  _108
REMARK   48  A    between atoms: _108  and  _109
REMARK   49  A    between atoms: _113  and  _115
REMARK   50  A    between atoms: _115  and  _116
REMARK   51  A    between atoms: _115  and  _118
REMARK   52  A    between atoms: _118  and  _119
REMARK   53  A    between atoms: _119  and  _120
REMARK   54  A    between atoms: _122  and  _124
REMARK   55  A    between atoms: _124  and  _125
REMARK   56  A    between atoms: _124  and  _127
REMARK   57  A    between atoms: _127  and  _128
REMARK   58  A    between atoms: _131  and  _133
REMARK   59  A    between atoms: _133  and  _134
REMARK   60  A    between atoms: _136  and  _138
REMARK   61  A    between atoms: _138  and  _139
REMARK   62  A    between atoms: _141  and  _143
REMARK   63  A    between atoms: _143  and  _144
REMARK   64  A    between atoms: _143  and  _146
REMARK   65  A    between atoms: _146  and  _147
REMARK   66  A    between atoms: _150  and  _152
REMARK   67  A    between atoms: _152  and  _153
REMARK   68  A    between atoms: _155  and  _157
REMARK   69  A    between atoms: _157  and  _158
REMARK   70  A    between atoms: _160  and  _162
REMARK   71  A    between atoms: _162  and  _163
REMARK   72  A    between atoms: _162  and  _165
REMARK   73  A    between atoms: _165  and  _166
REMARK   74  A    between atoms: _172  and  _174
REMARK   75  A    between atoms: _174  and  _175
REMARK   76  A    between atoms: _174  and  _177
REMARK   77  A    between atoms: _177  and  _178
REMARK   78  A    between atoms: _181  and  _183
REMARK   79  A    between atoms: _183  and  _184
REMARK   80  A    between atoms: _183  and  _186
REMARK   81  A    between atoms: _186  and  _187
REMARK   82  A    between atoms: _191  and  _192
REMARK   83  A    between atoms: _197  and  _199
REMARK   84  A    between atoms: _199  and  _200
REMARK   85  A    between atoms: _199  and  _202
REMARK   86  A    between atoms: _202  and  _203
REMARK   87  A    between atoms: _207  and  _208
REMARK   88  A    between atoms: _213  and  _215
REMARK   89  A    between atoms: _215  and  _216
REMARK   90  A    between atoms: _215  and  _218
REMARK   91  A    between atoms: _221  and  _223
REMARK   92  A    between atoms: _223  and  _224
REMARK   93  A    between atoms: _223  and  _226
REMARK   94  A    between atoms: _226  and  _227
REMARK   95  A    between atoms: _232  and  _234
REMARK   96  A    between atoms: _234  and  _235
REMARK   97  A    between atoms: _234  and  _237
REMARK   98  A    between atoms: _237  and  _238
REMARK   99  A    between atoms: _241  and  _243
REMARK  100  A    between atoms: _243  and  _244
REMARK  101  A    between atoms: _246  and  _248
REMARK  102  A    between atoms: _248  and  _249
REMARK  103  A    between atoms: _248  and  _251
REMARK  104  A    between atoms: _251  and  _252
REMARK  105  A    between atoms: _252  and  _253
REMARK  106  A    between atoms: _253  and  _254
REMARK  107  A    between atoms: _263  and  _265
REMARK  108  A    between atoms: _265  and  _266
REMARK  109  A    between atoms: _265  and  _268
REMARK  110  A    between atoms: _268  and  _269
REMARK  111  A    between atoms: _269  and  _270
REMARK  112  A    between atoms: _270  and  _271
REMARK  113  A    between atoms: _280  and  _282
REMARK  114  A    between atoms: _282  and  _283
REMARK  115  A    between atoms: _282  and  _285
REMARK  116  A    between atoms: _285  and  _286
REMARK  117  A    between atoms: _289  and  _291
REMARK  118  A    between atoms: _291  and  _292
REMARK  119  A    between atoms: _291  and  _294
REMARK  120  A    between atoms: _294  and  _295
REMARK  121  A    between atoms: _298  and  _300
REMARK  122  A    between atoms: _300  and  _301
REMARK  123  A    between atoms: _300  and  _303
REMARK  124  A    between atoms: _303  and  _304
REMARK  125  A    between atoms: _307  and  _309
REMARK  126  A    between atoms: _309  and  _310
REMARK  127  A    between atoms: _309  and  _312
REMARK  128  A    between atoms: _312  and  _313
REMARK  129  A    between atoms: _316  and  _318
REMARK  130  A    between atoms: _318  and  _319
REMARK  131  A    between atoms: _318  and  _321
REMARK  132  A    between atoms: _321  and  _322
REMARK  133  A    between atoms: _325  and  _327
REMARK  134  A    between atoms: _327  and  _328
REMARK  135  A    between atoms: _330  and  _332
REMARK  136  A    between atoms: _332  and  _333
REMARK  137  A    between atoms: _336  and  _338
REMARK  138  A    between atoms: _338  and  _339
REMARK  139  A    between atoms: _338  and  _341
REMARK  140  A    between atoms: _341  and  _342
REMARK  141  A    between atoms: _345  and  _347
REMARK  142  A    between atoms: _347  and  _348
REMARK  143  A    between atoms: _347  and  _350
REMARK  144  A    between atoms: _350  and  _351
REMARK  145  A    between atoms: _354  and  _356
REMARK  146  A    between atoms: _356  and  _357
REMARK  147  A    between atoms: _356  and  _359
REMARK  148  A    between atoms: _359  and  _360
REMARK  149  A    between atoms: _363  and  _365
REMARK  150  A    between atoms: _365  and  _366
REMARK  151  A    between atoms: _365  and  _368
REMARK  152  A    between atoms: _371  and  _373
REMARK  153  A    between atoms: _373  and  _374
REMARK  154  A    between atoms: _373  and  _376
REMARK  155  A    between atoms: _376  and  _377
REMARK  156  A    between atoms: _380  and  _382
REMARK  157  A    between atoms: _382  and  _383
REMARK  158  A    between atoms: _382  and  _385
REMARK  159  A    between atoms: _385  and  _386
REMARK  160  A    between atoms: _386  and  _387
REMARK  161  A    between atoms: _387  and  _388
REMARK  162  A    between atoms: _388  and  _389
REMARK  163  A    between atoms: _393  and  _395
REMARK  164  A    between atoms: _395  and  _396
REMARK  165  A    between atoms: _395  and  _398
REMARK  166  A    between atoms: _398  and  _399
REMARK  167  A    between atoms: _399  and  _400
REMARK  168  A    between atoms: _402  and  _404
REMARK  169  A    between atoms: _404  and  _405
REMARK  170  A    between atoms: _404  and  _407
REMARK  171  A    between atoms: _407  and  _408
REMARK  172  A    between atoms: _411  and  _413
REMARK  173  A    between atoms: _413  and  _414
REMARK  174  A    between atoms: _416  and  _418
REMARK  175  A    between atoms: _418  and  _419
REMARK  176  A    between atoms: _421  and  _423
REMARK  177  A    between atoms: _423  and  _424
REMARK  178  A    between atoms: _423  and  _426
REMARK  179  A    between atoms: _426  and  _427
REMARK  180  A    between atoms: _430  and  _432
REMARK  181  A    between atoms: _432  and  _433
REMARK  182  A    between atoms: _435  and  _437
REMARK  183  A    between atoms: _437  and  _438
REMARK  184  A    between atoms: _440  and  _442
REMARK  185  A    between atoms: _442  and  _443
REMARK  186  A    between atoms: _442  and  _445
REMARK  187  A    between atoms: _445  and  _446
REMARK  188  A    between atoms: _449  and  _451
REMARK  189  A    between atoms: _451  and  _452
REMARK  190  A    between atoms: _451  and  _454
REMARK  191  A    between atoms: _457  and  _459
REMARK  192  A    between atoms: _459  and  _460
REMARK  193  A    between atoms: _459  and  _462
REMARK  194  A    between atoms: _462  and  _463
REMARK  195  A    between atoms: _467  and  _468
REMARK  196  A    between atoms: _473  and  _475
REMARK  197  A    between atoms: _475  and  _476
REMARK  198  A    between atoms: _475  and  _478
REMARK  199  A    between atoms: _478  and  _479
REMARK  200  A    between atoms: _483  and  _484
REMARK  201  A    between atoms: _489  and  _491
REMARK  202  A    between atoms: _491  and  _492
REMARK  203  A    between atoms: _491  and  _494
REMARK  204  A    between atoms: _497  and  _499
REMARK  205  A    between atoms: _499  and  _500
REMARK  206  A    between atoms: _499  and  _502
REMARK  207  A    between atoms: _502  and  _503
REMARK  208  A    between atoms: _508  and  _510
REMARK  209  A    between atoms: _510  and  _511
REMARK  210  A    between atoms: _510  and  _513
REMARK  211  A    between atoms: _513  and  _514
REMARK  212  A    between atoms: _517  and  _519
REMARK  213  A    between atoms: _519  and  _520
REMARK  214  A    between atoms: _519  and  _522
REMARK  215  A    between atoms: _522  and  _523
REMARK  216  A    between atoms: _526  and  _528
REMARK  217  A    between atoms: _528  and  _529
REMARK  218  A    between atoms: _531  and  _533
REMARK  219  A    between atoms: _533  and  _534
REMARK  220  A    between atoms: _533  and  _536
REMARK  221  A    between atoms: _536  and  _537
REMARK  222  A    between atoms: _537  and  _538
REMARK  223  A    between atoms: _538  and  _539
REMARK  224  A    between atoms: _548  and  _550
REMARK  225  A    between atoms: _550  and  _551
REMARK  226  A    between atoms: _550  and  _553
REMARK  227  A    between atoms: _553  and  _554
REMARK                            x       y       z     vdW  Elec       q    Type
REMARK                         _______ _______ _______ _____ _____    ______ ____
ROOT
ATOM      1  O   HOH     1       6.549  34.289  -2.272  0.00  0.00    +0.000 OA
ENDROOT
TORSDOF 0
REMARK  Name = ../refined-set-2016/1hxw/1hxw_pocket.pdb
REMARK  227 active torsions:
REMARK  status: ('A' for Active; 'I' for Inactive)
REMARK    1  A    between atoms: _1  and  _3
REMARK    2  A    between atoms: _3  and  _4
REMARK    3  A    between atoms: _3  and  _6
REMARK    4  A    between atoms: _6  and  _7
REMARK    5  A    between atoms: _7  and  _8
REMARK    6  A    between atoms: _8  and  _9
REMARK    7  A    between atoms: _18  and  _20
REMARK    8  A    between atoms: _20  and  _21
REMARK    9  A    between atoms: _20  and  _23
REMARK   10  A    between atoms: _23  and  _24
REMARK   11  A    between atoms: _27  and  _29
REMARK   12  A    between atoms: _29  and  _30
REMARK   13  A    between atoms: _29  and  _32
REMARK   14  A    between atoms: _32  and  _33
REMARK   15  A    between atoms: _36  and  _38
REMARK   16  A    between atoms: _38  and  _39
REMARK   17  A    between atoms: _38  and  _41
REMARK   18  A    between atoms: _41  and  _42
REMARK   19  A    between atoms: _45  and  _47
REMARK   20  A    between atoms: _47  and  _48
REMARK   21  A    between atoms: _47  and  _50
REMARK   22  A    between atoms: _50  and  _51
REMARK   23  A    between atoms: _54  and  _56
REMARK   24  A    between atoms: _56  and  _57
REMARK   25  A    between atoms: _59  and  _61
REMARK   26  A    between atoms: _61  and  _62
REMARK   27  A    between atoms: _65  and  _67
REMARK   28  A    between atoms: _67  and  _68
REMARK   29  A    between atoms: _67  and  _70
REMARK   30  A    between atoms: _70  and  _71
REMARK   31  A    between atoms: _74  and  _76
REMARK   32  A    between atoms: _76  and  _77
REMARK   33  A    between atoms: _76  and  _79
REMARK   34  A    between atoms: _79  and  _80
REMARK   35  A    between atoms: _83  and  _85
REMARK   36  A    between atoms: _85  and  _86
REMARK   37  A    between atoms: _85  and  _88
REMARK   38  A    between atoms: _88  and  _89
REMARK   39  A    between atoms: _92  and  _94
REMARK   40  A    between atoms: _94  and  _95
REMARK   41  A    between atoms: _94  and  _97
REMARK   42  A    between atoms: _100  and  _102
REMARK   43  A    between atoms: _102  and  _103
REMARK   44  A    between atoms: _102  and  _105
REMARK   45  A    between atoms: _105  and  _106
REMARK   46  A    between atoms: _106  and  _107
REMARK   47  A    between atoms: _107  and  _108
REMARK   48  A    between atoms: _108  and  _109
REMARK   49  A    between atoms: _113  and  _115
REMARK   50  A    between atoms: _115  and  _116
REMARK   51  A    between atoms: _115  and  _118
REMARK   52  A    between atoms: _118  and  _119
REMARK   53  A    between atoms: _119  and  _120
REMARK   54  A    between atoms: _122  and  _124
REMARK   55  A    between atoms: _124  and  _125
REMARK   56  A    between atoms: _124  and  _127
REMARK   57  A    between atoms: _127  and  _128
REMARK   58  A    between atoms: _131  and  _133
REMARK   59  A    between atoms: _133  and  _134
REMARK   60  A    between atoms: _136  and  _138
REMARK   61  A    between atoms: _138  and  _139
REMARK   62  A    between atoms: _141  and  _143
REMARK   63  A    between atoms: _143  and  _144
REMARK   64  A    between atoms: _143  and  _146
REMARK   65  A    between atoms: _146  and  _147
REMARK   66  A    between atoms: _150  and  _152
REMARK   67  A    between atoms: _152  and  _153
REMARK   68  A    between atoms: _155  and  _157
REMARK   69  A    between atoms: _157  and  _158
REMARK   70  A    between atoms: _160  and  _162
REMARK   71  A    between atoms: _162  and  _163
REMARK   72  A    between atoms: _162  and  _165
REMARK   73  A    between atoms: _165  and  _166
REMARK   74  A    between atoms: _172  and  _174
REMARK   75  A    between atoms: _174  and  _175
REMARK   76  A    between atoms: _174  and  _177
REMARK   77  A    between atoms: _177  and  _178
REMARK   78  A    between atoms: _181  and  _183
REMARK   79  A    between atoms: _183  and  _184
REMARK   80  A    between atoms: _183  and  _186
REMARK   81  A    between atoms: _186  and  _187
REMARK   82  A    between atoms: _191  and  _192
REMARK   83  A    between atoms: _197  and  _199
REMARK   84  A    between atoms: _199  and  _200
REMARK   85  A    between atoms: _199  and  _202
REMARK   86  A    between atoms: _202  and  _203
REMARK   87  A    between atoms: _207  and  _208
REMARK   88  A    between atoms: _213  and  _215
REMARK   89  A    between atoms: _215  and  _216
REMARK   90  A    between atoms: _215  and  _218
REMARK   91  A    between atoms: _221  and  _223
REMARK   92  A    between atoms: _223  and  _224
REMARK   93  A    between atoms: _223  and  _226
REMARK   94  A    between atoms: _226  and  _227
REMARK   95  A    between atoms: _232  and  _234
REMARK   96  A    between atoms: _234  and  _235
REMARK   97  A    between atoms: _234  and  _237
REMARK   98  A    between atoms: _237  and  _238
REMARK   99  A    between atoms: _241  and  _243
REMARK  100  A    between atoms: _243  and  _244
REMARK  101  A    between atoms: _246  and  _248
REMARK  102  A    between atoms: _248  and  _249
REMARK  103  A    between atoms: _248  and  _251
REMARK  104  A    between atoms: _251  and  _252
REMARK  105  A    between atoms: _252  and  _253
REMARK  106  A    between atoms: _253  and  _254
REMARK  107  A    between atoms: _263  and  _265
REMARK  108  A    between atoms: _265  and  _266
REMARK  109  A    between atoms: _265  and  _268
REMARK  110  A    between atoms: _268  and  _269
REMARK  111  A    between atoms: _269  and  _270
REMARK  112  A    between atoms: _270  and  _271
REMARK  113  A    between atoms: _280  and  _282
REMARK  114  A    between atoms: _282  and  _283
REMARK  115  A    between atoms: _282  and  _285
REMARK  116  A    between atoms: _285  and  _286
REMARK  117  A    between atoms: _289  and  _291
REMARK  118  A    between atoms: _291  and  _292
REMARK  119  A    between atoms: _291  and  _294
REMARK  120  A    between atoms: _294  and  _295
REMARK  121  A    between atoms: _298  and  _300
REMARK  122  A    between atoms: _300  and  _301
REMARK  123  A    between atoms: _300  and  _303
REMARK  124  A    between atoms: _303  and  _304
REMARK  125  A    between atoms: _307  and  _309
REMARK  126  A    between atoms: _309  and  _310
REMARK  127  A    between atoms: _309  and  _312
REMARK  128  A    between atoms: _312  and  _313
REMARK  129  A    between atoms: _316  and  _318
REMARK  130  A    between atoms: _318  and  _319
REMARK  131  A    between atoms: _318  and  _321
REMARK  132  A    between atoms: _321  and  _322
REMARK  133  A    between atoms: _325  and  _327
REMARK  134  A    between atoms: _327  and  _328
REMARK  135  A    between atoms: _330  and  _332
REMARK  136  A    between atoms: _332  and  _333
REMARK  137  A    between atoms: _336  and  _338
REMARK  138  A    between atoms: _338  and  _339
REMARK  139  A    between atoms: _338  and  _341
REMARK  140  A    between atoms: _341  and  _342
REMARK  141  A    between atoms: _345  and  _347
REMARK  142  A    between atoms: _347  and  _348
REMARK  143  A    between atoms: _347  and  _350
REMARK  144  A    between atoms: _350  and  _351
REMARK  145  A    between atoms: _354  and  _356
REMARK  146  A    between atoms: _356  and  _357
REMARK  147  A    between atoms: _356  and  _359
REMARK  148  A    between atoms: _359  and  _360
REMARK  149  A    between atoms: _363  and  _365
REMARK  150  A    between atoms: _365  and  _366
REMARK  151  A    between atoms: _365  and  _368
REMARK  152  A    between atoms: _371  and  _373
REMARK  153  A    between atoms: _373  and  _374
REMARK  154  A    between atoms: _373  and  _376
REMARK  155  A    between atoms: _376  and  _377
REMARK  156  A    between atoms: _380  and  _382
REMARK  157  A    between atoms: _382  and  _383
REMARK  158  A    between atoms: _382  and  _385
REMARK  159  A    between atoms: _385  and  _386
REMARK  160  A    between atoms: _386  and  _387
REMARK  161  A    between atoms: _387  and  _388
REMARK  162  A    between atoms: _388  and  _389
REMARK  163  A    between atoms: _393  and  _395
REMARK  164  A    between atoms: _395  and  _396
REMARK  165  A    between atoms: _395  and  _398
REMARK  166  A    between atoms: _398  and  _399
REMARK  167  A    between atoms: _399  and  _400
REMARK  168  A    between atoms: _402  and  _404
REMARK  169  A    between atoms: _404  and  _405
REMARK  170  A    between atoms: _404  and  _407
REMARK  171  A    between atoms: _407  and  _408
REMARK  172  A    between atoms: _411  and  _413
REMARK  173  A    between atoms: _413  and  _414
REMARK  174  A    between atoms: _416  and  _418
REMARK  175  A    between atoms: _418  and  _419
REMARK  176  A    between atoms: _421  and  _423
REMARK  177  A    between atoms: _423  and  _424
REMARK  178  A    between atoms: _423  and  _426
REMARK  179  A    between atoms: _426  and  _427
REMARK  180  A    between atoms: _430  and  _432
REMARK  181  A    between atoms: _432  and  _433
REMARK  182  A    between atoms: _435  and  _437
REMARK  183  A    between atoms: _437  and  _438
REMARK  184  A    between atoms: _440  and  _442
REMARK  185  A    between atoms: _442  and  _443
REMARK  186  A    between atoms: _442  and  _445
REMARK  187  A    between atoms: _445  and  _446
REMARK  188  A    between atoms: _449  and  _451
REMARK  189  A    between atoms: _451  and  _452
REMARK  190  A    between atoms: _451  and  _454
REMARK  191  A    between atoms: _457  and  _459
REMARK  192  A    between atoms: _459  and  _460
REMARK  193  A    between atoms: _459  and  _462
REMARK  194  A    between atoms: _462  and  _463
REMARK  195  A    between atoms: _467  and  _468
REMARK  196  A    between atoms: _473  and  _475
REMARK  197  A    between atoms: _475  and  _476
REMARK  198  A    between atoms: _475  and  _478
REMARK  199  A    between atoms: _478  and  _479
REMARK  200  A    between atoms: _483  and  _484
REMARK  201  A    between atoms: _489  and  _491
REMARK  202  A    between atoms: _491  and  _492
REMARK  203  A    between atoms: _491  and  _494
REMARK  204  A    between atoms: _497  and  _499
REMARK  205  A    between atoms: _499  and  _500
REMARK  206  A    between atoms: _499  and  _502
REMARK  207  A    between atoms: _502  and  _503
REMARK  208  A    between atoms: _508  and  _510
REMARK  209  A    between atoms: _510  and  _511
REMARK  210  A    between atoms: _510  and  _513
REMARK  211  A    between atoms: _513  and  _514
REMARK  212  A    between atoms: _517  and  _519
REMARK  213  A    between atoms: _519  and  _520
REMARK  214  A    between atoms: _519  and  _522
REMARK  215  A    between atoms: _522  and  _523
REMARK  216  A    between atoms: _526  and  _528
REMARK  217  A    between atoms: _528  and  _529
REMARK  218  A    between atoms: _531  and  _533
REMARK  219  A    between atoms: _533  and  _534
REMARK  220  A    between atoms: _533  and  _536
REMARK  221  A    between atoms: _536  and  _537
REMARK  222  A    between atoms: _537  and  _538
REMARK  223  A    between atoms: _538  and  _539
REMARK  224  A    between atoms: _548  and  _550
REMARK  225  A    between atoms: _550  and  _551
REMARK  226  A    between atoms: _550  and  _553
REMARK  227  A    between atoms: _553  and  _554
REMARK                            x       y       z     vdW  Elec       q    Type
REMARK                         _______ _______ _______ _____ _____    ______ ____
ROOT
ATOM      1  O   HOH     1       5.794  28.934  -4.000  0.00  0.00    +0.000 OA
ENDROOT
TORSDOF 0
REMARK  Name = ../refined-set-2016/1hxw/1hxw_pocket.pdb
REMARK  227 active torsions:
REMARK  status: ('A' for Active; 'I' for Inactive)
REMARK    1  A    between atoms: _1  and  _3
REMARK    2  A    between atoms: _3  and  _4
REMARK    3  A    between atoms: _3  and  _6
REMARK    4  A    between atoms: _6  and  _7
REMARK    5  A    between atoms: _7  and  _8
REMARK    6  A    between atoms: _8  and  _9
REMARK    7  A    between atoms: _18  and  _20
REMARK    8  A    between atoms: _20  and  _21
REMARK    9  A    between atoms: _20  and  _23
REMARK   10  A    between atoms: _23  and  _24
REMARK   11  A    between atoms: _27  and  _29
REMARK   12  A    between atoms: _29  and  _30
REMARK   13  A    between atoms: _29  and  _32
REMARK   14  A    between atoms: _32  and  _33
REMARK   15  A    between atoms: _36  and  _38
REMARK   16  A    between atoms: _38  and  _39
REMARK   17  A    between atoms: _38  and  _41
REMARK   18  A    between atoms: _41  and  _42
REMARK   19  A    between atoms: _45  and  _47
REMARK   20  A    between atoms: _47  and  _48
REMARK   21  A    between atoms: _47  and  _50
REMARK   22  A    between atoms: _50  and  _51
REMARK   23  A    between atoms: _54  and  _56
REMARK   24  A    between atoms: _56  and  _57
REMARK   25  A    between atoms: _59  and  _61
REMARK   26  A    between atoms: _61  and  _62
REMARK   27  A    between atoms: _65  and  _67
REMARK   28  A    between atoms: _67  and  _68
REMARK   29  A    between atoms: _67  and  _70
REMARK   30  A    between atoms: _70  and  _71
REMARK   31  A    between atoms: _74  and  _76
REMARK   32  A    between atoms: _76  and  _77
REMARK   33  A    between atoms: _76  and  _79
REMARK   34  A    between atoms: _79  and  _80
REMARK   35  A    between atoms: _83  and  _85
REMARK   36  A    between atoms: _85  and  _86
REMARK   37  A    between atoms: _85  and  _88
REMARK   38  A    between atoms: _88  and  _89
REMARK   39  A    between atoms: _92  and  _94
REMARK   40  A    between atoms: _94  and  _95
REMARK   41  A    between atoms: _94  and  _97
REMARK   42  A    between atoms: _100  and  _102
REMARK   43  A    between atoms: _102  and  _103
REMARK   44  A    between atoms: _102  and  _105
REMARK   45  A    between atoms: _105  and  _106
REMARK   46  A    between atoms: _106  and  _107
REMARK   47  A    between atoms: _107  and  _108
REMARK   48  A    between atoms: _108  and  _109
REMARK   49  A    between atoms: _113  and  _115
REMARK   50  A    between atoms: _115  and  _116
REMARK   51  A    between atoms: _115  and  _118
REMARK   52  A    between atoms: _118  and  _119
REMARK   53  A    between atoms: _119  and  _120
REMARK   54  A    between atoms: _122  and  _124
REMARK   55  A    between atoms: _124  and  _125
REMARK   56  A    between atoms: _124  and  _127
REMARK   57  A    between atoms: _127  and  _128
REMARK   58  A    between atoms: _131  and  _133
REMARK   59  A    between atoms: _133  and  _134
REMARK   60  A    between atoms: _136  and  _138
REMARK   61  A    between atoms: _138  and  _139
REMARK   62  A    between atoms: _141  and  _143
REMARK   63  A    between atoms: _143  and  _144
REMARK   64  A    between atoms: _143  and  _146
REMARK   65  A    between atoms: _146  and  _147
REMARK   66  A    between atoms: _150  and  _152
REMARK   67  A    between atoms: _152  and  _153
REMARK   68  A    between atoms: _155  and  _157
REMARK   69  A    between atoms: _157  and  _158
REMARK   70  A    between atoms: _160  and  _162
REMARK   71  A    between atoms: _162  and  _163
REMARK   72  A    between atoms: _162  and  _165
REMARK   73  A    between atoms: _165  and  _166
REMARK   74  A    between atoms: _172  and  _174
REMARK   75  A    between atoms: _174  and  _175
REMARK   76  A    between atoms: _174  and  _177
REMARK   77  A    between atoms: _177  and  _178
REMARK   78  A    between atoms: _181  and  _183
REMARK   79  A    between atoms: _183  and  _184
REMARK   80  A    between atoms: _183  and  _186
REMARK   81  A    between atoms: _186  and  _187
REMARK   82  A    between atoms: _191  and  _192
REMARK   83  A    between atoms: _197  and  _199
REMARK   84  A    between atoms: _199  and  _200
REMARK   85  A    between atoms: _199  and  _202
REMARK   86  A    between atoms: _202  and  _203
REMARK   87  A    between atoms: _207  and  _208
REMARK   88  A    between atoms: _213  and  _215
REMARK   89  A    between atoms: _215  and  _216
REMARK   90  A    between atoms: _215  and  _218
REMARK   91  A    between atoms: _221  and  _223
REMARK   92  A    between atoms: _223  and  _224
REMARK   93  A    between atoms: _223  and  _226
REMARK   94  A    between atoms: _226  and  _227
REMARK   95  A    between atoms: _232  and  _234
REMARK   96  A    between atoms: _234  and  _235
REMARK   97  A    between atoms: _234  and  _237
REMARK   98  A    between atoms: _237  and  _238
REMARK   99  A    between atoms: _241  and  _243
REMARK  100  A    between atoms: _243  and  _244
REMARK  101  A    between atoms: _246  and  _248
REMARK  102  A    between atoms: _248  and  _249
REMARK  103  A    between atoms: _248  and  _251
REMARK  104  A    between atoms: _251  and  _252
REMARK  105  A    between atoms: _252  and  _253
REMARK  106  A    between atoms: _253  and  _254
REMARK  107  A    between atoms: _263  and  _265
REMARK  108  A    between atoms: _265  and  _266
REMARK  109  A    between atoms: _265  and  _268
REMARK  110  A    between atoms: _268  and  _269
REMARK  111  A    between atoms: _269  and  _270
REMARK  112  A    between atoms: _270  and  _271
REMARK  113  A    between atoms: _280  and  _282
REMARK  114  A    between atoms: _282  and  _283
REMARK  115  A    between atoms: _282  and  _285
REMARK  116  A    between atoms: _285  and  _286
REMARK  117  A    between atoms: _289  and  _291
REMARK  118  A    between atoms: _291  and  _292
REMARK  119  A    between atoms: _291  and  _294
REMARK  120  A    between atoms: _294  and  _295
REMARK  121  A    between atoms: _298  and  _300
REMARK  122  A    between atoms: _300  and  _301
REMARK  123  A    between atoms: _300  and  _303
REMARK  124  A    between atoms: _303  and  _304
REMARK  125  A    between atoms: _307  and  _309
REMARK  126  A    between atoms: _309  and  _310
REMARK  127  A    between atoms: _309  and  _312
REMARK  128  A    between atoms: _312  and  _313
REMARK  129  A    between atoms: _316  and  _318
REMARK  130  A    between atoms: _318  and  _319
REMARK  131  A    between atoms: _318  and  _321
REMARK  132  A    between atoms: _321  and  _322
REMARK  133  A    between atoms: _325  and  _327
REMARK  134  A    between atoms: _327  and  _328
REMARK  135  A    between atoms: _330  and  _332
REMARK  136  A    between atoms: _332  and  _333
REMARK  137  A    between atoms: _336  and  _338
REMARK  138  A    between atoms: _338  and  _339
REMARK  139  A    between atoms: _338  and  _341
REMARK  140  A    between atoms: _341  and  _342
REMARK  141  A    between atoms: _345  and  _347
REMARK  142  A    between atoms: _347  and  _348
REMARK  143  A    between atoms: _347  and  _350
REMARK  144  A    between atoms: _350  and  _351
REMARK  145  A    between atoms: _354  and  _356
REMARK  146  A    between atoms: _356  and  _357
REMARK  147  A    between atoms: _356  and  _359
REMARK  148  A    between atoms: _359  and  _360
REMARK  149  A    between atoms: _363  and  _365
REMARK  150  A    between atoms: _365  and  _366
REMARK  151  A    between atoms: _365  and  _368
REMARK  152  A    between atoms: _371  and  _373
REMARK  153  A    between atoms: _373  and  _374
REMARK  154  A    between atoms: _373  and  _376
REMARK  155  A    between atoms: _376  and  _377
REMARK  156  A    between atoms: _380  and  _382
REMARK  157  A    between atoms: _382  and  _383
REMARK  158  A    between atoms: _382  and  _385
REMARK  159  A    between atoms: _385  and  _386
REMARK  160  A    between atoms: _386  and  _387
REMARK  161  A    between atoms: _387  and  _388
REMARK  162  A    between atoms: _388  and  _389
REMARK  163  A    between atoms: _393  and  _395
REMARK  164  A    between atoms: _395  and  _396
REMARK  165  A    between atoms: _395  and  _398
REMARK  166  A    between atoms: _398  and  _399
REMARK  167  A    between atoms: _399  and  _400
REMARK  168  A    between atoms: _402  and  _404
REMARK  169  A    between atoms: _404  and  _405
REMARK  170  A    between atoms: _404  and  _407
REMARK  171  A    between atoms: _407  and  _408
REMARK  172  A    between atoms: _411  and  _413
REMARK  173  A    between atoms: _413  and  _414
REMARK  174  A    between atoms: _416  and  _418
REMARK  175  A    between atoms: _418  and  _419
REMARK  176  A    between atoms: _421  and  _423
REMARK  177  A    between atoms: _423  and  _424
REMARK  178  A    between atoms: _423  and  _426
REMARK  179  A    between atoms: _426  and  _427
REMARK  180  A    between atoms: _430  and  _432
REMARK  181  A    between atoms: _432  and  _433
REMARK  182  A    between atoms: _435  and  _437
REMARK  183  A    between atoms: _437  and  _438
REMARK  184  A    between atoms: _440  and  _442
REMARK  185  A    between atoms: _442  and  _443
REMARK  186  A    between atoms: _442  and  _445
REMARK  187  A    between atoms: _445  and  _446
REMARK  188  A    between atoms: _449  and  _451
REMARK  189  A    between atoms: _451  and  _452
REMARK  190  A    between atoms: _451  and  _454
REMARK  191  A    between atoms: _457  and  _459
REMARK  192  A    between atoms: _459  and  _460
REMARK  193  A    between atoms: _459  and  _462
REMARK  194  A    between atoms: _462  and  _463
REMARK  195  A    between atoms: _467  and  _468
REMARK  196  A    between atoms: _473  and  _475
REMARK  197  A    between atoms: _475  and  _476
REMARK  198  A    between atoms: _475  and  _478
REMARK  199  A    between atoms: _478  and  _479
REMARK  200  A    between atoms: _483  and  _484
REMARK  201  A    between atoms: _489  and  _491
REMARK  202  A    between atoms: _491  and  _492
REMARK  203  A    between atoms: _491  and  _494
REMARK  204  A    between atoms: _497  and  _499
REMARK  205  A    between atoms: _499  and  _500
REMARK  206  A    between atoms: _499  and  _502
REMARK  207  A    between atoms: _502  and  _503
REMARK  208  A    between atoms: _508  and  _510
REMARK  209  A    between atoms: _510  and  _511
REMARK  210  A    between atoms: _510  and  _513
REMARK  211  A    between atoms: _513  and  _514
REMARK  212  A    between atoms: _517  and  _519
REMARK  213  A    between atoms: _519  and  _520
REMARK  214  A    between atoms: _519  and  _522
REMARK  215  A    between atoms: _522  and  _523
REMARK  216  A    between atoms: _526  and  _528
REMARK  217  A    between atoms: _528  and  _529
REMARK  218  A    between atoms: _531  and  _533
REMARK  219  A    between atoms: _533  and  _534
REMARK  220  A    between atoms: _533  and  _536
REMARK  221  A    between atoms: _536  and  _537
REMARK  222  A    between atoms: _537  and  _538
REMARK  223  A    between atoms: _538  and  _539
REMARK  224  A    between atoms: _548  and  _550
REMARK  225  A    between atoms: _550  and  _551
REMARK  226  A    between atoms: _550  and  _553
REMARK  227  A    between atoms: _553  and  _554
REMARK                            x       y       z     vdW  Elec       q    Type
REMARK                         _______ _______ _______ _____ _____    ______ ____
ROOT
ATOM      1  O   HOH     1       6.515  15.472   2.608  0.00  0.00    +0.000 OA
ENDROOT
TORSDOF 0
REMARK  Name = ../refined-set-2016/1hxw/1hxw_pocket.pdb
REMARK  227 active torsions:
REMARK  status: ('A' for Active; 'I' for Inactive)
REMARK    1  A    between atoms: _1  and  _3
REMARK    2  A    between atoms: _3  and  _4
REMARK    3  A    between atoms: _3  and  _6
REMARK    4  A    between atoms: _6  and  _7
REMARK    5  A    between atoms: _7  and  _8
REMARK    6  A    between atoms: _8  and  _9
REMARK    7  A    between atoms: _18  and  _20
REMARK    8  A    between atoms: _20  and  _21
REMARK    9  A    between atoms: _20  and  _23
REMARK   10  A    between atoms: _23  and  _24
REMARK   11  A    between atoms: _27  and  _29
REMARK   12  A    between atoms: _29  and  _30
REMARK   13  A    between atoms: _29  and  _32
REMARK   14  A    between atoms: _32  and  _33
REMARK   15  A    between atoms: _36  and  _38
REMARK   16  A    between atoms: _38  and  _39
REMARK   17  A    between atoms: _38  and  _41
REMARK   18  A    between atoms: _41  and  _42
REMARK   19  A    between atoms: _45  and  _47
REMARK   20  A    between atoms: _47  and  _48
REMARK   21  A    between atoms: _47  and  _50
REMARK   22  A    between atoms: _50  and  _51
REMARK   23  A    between atoms: _54  and  _56
REMARK   24  A    between atoms: _56  and  _57
REMARK   25  A    between atoms: _59  and  _61
REMARK   26  A    between atoms: _61  and  _62
REMARK   27  A    between atoms: _65  and  _67
REMARK   28  A    between atoms: _67  and  _68
REMARK   29  A    between atoms: _67  and  _70
REMARK   30  A    between atoms: _70  and  _71
REMARK   31  A    between atoms: _74  and  _76
REMARK   32  A    between atoms: _76  and  _77
REMARK   33  A    between atoms: _76  and  _79
REMARK   34  A    between atoms: _79  and  _80
REMARK   35  A    between atoms: _83  and  _85
REMARK   36  A    between atoms: _85  and  _86
REMARK   37  A    between atoms: _85  and  _88
REMARK   38  A    between atoms: _88  and  _89
REMARK   39  A    between atoms: _92  and  _94
REMARK   40  A    between atoms: _94  and  _95
REMARK   41  A    between atoms: _94  and  _97
REMARK   42  A    between atoms: _100  and  _102
REMARK   43  A    between atoms: _102  and  _103
REMARK   44  A    between atoms: _102  and  _105
REMARK   45  A    between atoms: _105  and  _106
REMARK   46  A    between atoms: _106  and  _107
REMARK   47  A    between atoms: _107  and  _108
REMARK   48  A    between atoms: _108  and  _109
REMARK   49  A    between atoms: _113  and  _115
REMARK   50  A    between atoms: _115  and  _116
REMARK   51  A    between atoms: _115  and  _118
REMARK   52  A    between atoms: _118  and  _119
REMARK   53  A    between atoms: _119  and  _120
REMARK   54  A    between atoms: _122  and  _124
REMARK   55  A    between atoms: _124  and  _125
REMARK   56  A    between atoms: _124  and  _127
REMARK   57  A    between atoms: _127  and  _128
REMARK   58  A    between atoms: _131  and  _133
REMARK   59  A    between atoms: _133  and  _134
REMARK   60  A    between atoms: _136  and  _138
REMARK   61  A    between atoms: _138  and  _139
REMARK   62  A    between atoms: _141  and  _143
REMARK   63  A    between atoms: _143  and  _144
REMARK   64  A    between atoms: _143  and  _146
REMARK   65  A    between atoms: _146  and  _147
REMARK   66  A    between atoms: _150  and  _152
REMARK   67  A    between atoms: _152  and  _153
REMARK   68  A    between atoms: _155  and  _157
REMARK   69  A    between atoms: _157  and  _158
REMARK   70  A    between atoms: _160  and  _162
REMARK   71  A    between atoms: _162  and  _163
REMARK   72  A    between atoms: _162  and  _165
REMARK   73  A    between atoms: _165  and  _166
REMARK   74  A    between atoms: _172  and  _174
REMARK   75  A    between atoms: _174  and  _175
REMARK   76  A    between atoms: _174  and  _177
REMARK   77  A    between atoms: _177  and  _178
REMARK   78  A    between atoms: _181  and  _183
REMARK   79  A    between atoms: _183  and  _184
REMARK   80  A    between atoms: _183  and  _186
REMARK   81  A    between atoms: _186  and  _187
REMARK   82  A    between atoms: _191  and  _192
REMARK   83  A    between atoms: _197  and  _199
REMARK   84  A    between atoms: _199  and  _200
REMARK   85  A    between atoms: _199  and  _202
REMARK   86  A    between atoms: _202  and  _203
REMARK   87  A    between atoms: _207  and  _208
REMARK   88  A    between atoms: _213  and  _215
REMARK   89  A    between atoms: _215  and  _216
REMARK   90  A    between atoms: _215  and  _218
REMARK   91  A    between atoms: _221  and  _223
REMARK   92  A    between atoms: _223  and  _224
REMARK   93  A    between atoms: _223  and  _226
REMARK   94  A    between atoms: _226  and  _227
REMARK   95  A    between atoms: _232  and  _234
REMARK   96  A    between atoms: _234  and  _235
REMARK   97  A    between atoms: _234  and  _237
REMARK   98  A    between atoms: _237  and  _238
REMARK   99  A    between atoms: _241  and  _243
REMARK  100  A    between atoms: _243  and  _244
REMARK  101  A    between atoms: _246  and  _248
REMARK  102  A    between atoms: _248  and  _249
REMARK  103  A    between atoms: _248  and  _251
REMARK  104  A    between atoms: _251  and  _252
REMARK  105  A    between atoms: _252  and  _253
REMARK  106  A    between atoms: _253  and  _254
REMARK  107  A    between atoms: _263  and  _265
REMARK  108  A    between atoms: _265  and  _266
REMARK  109  A    between atoms: _265  and  _268
REMARK  110  A    between atoms: _268  and  _269
REMARK  111  A    between atoms: _269  and  _270
REMARK  112  A    between atoms: _270  and  _271
REMARK  113  A    between atoms: _280  and  _282
REMARK  114  A    between atoms: _282  and  _283
REMARK  115  A    between atoms: _282  and  _285
REMARK  116  A    between atoms: _285  and  _286
REMARK  117  A    between atoms: _289  and  _291
REMARK  118  A    between atoms: _291  and  _292
REMARK  119  A    between atoms: _291  and  _294
REMARK  120  A    between atoms: _294  and  _295
REMARK  121  A    between atoms: _298  and  _300
REMARK  122  A    between atoms: _300  and  _301
REMARK  123  A    between atoms: _300  and  _303
REMARK  124  A    between atoms: _303  and  _304
REMARK  125  A    between atoms: _307  and  _309
REMARK  126  A    between atoms: _309  and  _310
REMARK  127  A    between atoms: _309  and  _312
REMARK  128  A    between atoms: _312  and  _313
REMARK  129  A    between atoms: _316  and  _318
REMARK  130  A    between atoms: _318  and  _319
REMARK  131  A    between atoms: _318  and  _321
REMARK  132  A    between atoms: _321  and  _322
REMARK  133  A    between atoms: _325  and  _327
REMARK  134  A    between atoms: _327  and  _328
REMARK  135  A    between atoms: _330  and  _332
REMARK  136  A    between atoms: _332  and  _333
REMARK  137  A    between atoms: _336  and  _338
REMARK  138  A    between atoms: _338  and  _339
REMARK  139  A    between atoms: _338  and  _341
REMARK  140  A    between atoms: _341  and  _342
REMARK  141  A    between atoms: _345  and  _347
REMARK  142  A    between atoms: _347  and  _348
REMARK  143  A    between atoms: _347  and  _350
REMARK  144  A    between atoms: _350  and  _351
REMARK  145  A    between atoms: _354  and  _356
REMARK  146  A    between atoms: _356  and  _357
REMARK  147  A    between atoms: _356  and  _359
REMARK  148  A    between atoms: _359  and  _360
REMARK  149  A    between atoms: _363  and  _365
REMARK  150  A    between atoms: _365  and  _366
REMARK  151  A    between atoms: _365  and  _368
REMARK  152  A    between atoms: _371  and  _373
REMARK  153  A    between atoms: _373  and  _374
REMARK  154  A    between atoms: _373  and  _376
REMARK  155  A    between atoms: _376  and  _377
REMARK  156  A    between atoms: _380  and  _382
REMARK  157  A    between atoms: _382  and  _383
REMARK  158  A    between atoms: _382  and  _385
REMARK  159  A    between atoms: _385  and  _386
REMARK  160  A    between atoms: _386  and  _387
REMARK  161  A    between atoms: _387  and  _388
REMARK  162  A    between atoms: _388  and  _389
REMARK  163  A    between atoms: _393  and  _395
REMARK  164  A    between atoms: _395  and  _396
REMARK  165  A    between atoms: _395  and  _398
REMARK  166  A    between atoms: _398  and  _399
REMARK  167  A    between atoms: _399  and  _400
REMARK  168  A    between atoms: _402  and  _404
REMARK  169  A    between atoms: _404  and  _405
REMARK  170  A    between atoms: _404  and  _407
REMARK  171  A    between atoms: _407  and  _408
REMARK  172  A    between atoms: _411  and  _413
REMARK  173  A    between atoms: _413  and  _414
REMARK  174  A    between atoms: _416  and  _418
REMARK  175  A    between atoms: _418  and  _419
REMARK  176  A    between atoms: _421  and  _423
REMARK  177  A    between atoms: _423  and  _424
REMARK  178  A    between atoms: _423  and  _426
REMARK  179  A    between atoms: _426  and  _427
REMARK  180  A    between atoms: _430  and  _432
REMARK  181  A    between atoms: _432  and  _433
REMARK  182  A    between atoms: _435  and  _437
REMARK  183  A    between atoms: _437  and  _438
REMARK  184  A    between atoms: _440  and  _442
REMARK  185  A    between atoms: _442  and  _443
REMARK  186  A    between atoms: _442  and  _445
REMARK  187  A    between atoms: _445  and  _446
REMARK  188  A    between atoms: _449  and  _451
REMARK  189  A    between atoms: _451  and  _452
REMARK  190  A    between atoms: _451  and  _454
REMARK  191  A    between atoms: _457  and  _459
REMARK  192  A    between atoms: _459  and  _460
REMARK  193  A    between atoms: _459  and  _462
REMARK  194  A    between atoms: _462  and  _463
REMARK  195  A    between atoms: _467  and  _468
REMARK  196  A    between atoms: _473  and  _475
REMARK  197  A    between atoms: _475  and  _476
REMARK  198  A    between atoms: _475  and  _478
REMARK  199  A    between atoms: _478  and  _479
REMARK  200  A    between atoms: _483  and  _484
REMARK  201  A    between atoms: _489  and  _491
REMARK  202  A    between atoms: _491  and  _492
REMARK  203  A    between atoms: _491  and  _494
REMARK  204  A    between atoms: _497  and  _499
REMARK  205  A    between atoms: _499  and  _500
REMARK  206  A    between atoms: _499  and  _502
REMARK  207  A    between atoms: _502  and  _503
REMARK  208  A    between atoms: _508  and  _510
REMARK  209  A    between atoms: _510  and  _511
REMARK  210  A    between atoms: _510  and  _513
REMARK  211  A    between atoms: _513  and  _514
REMARK  212  A    between atoms: _517  and  _519
REMARK  213  A    between atoms: _519  and  _520
REMARK  214  A    between atoms: _519  and  _522
REMARK  215  A    between atoms: _522  and  _523
REMARK  216  A    between atoms: _526  and  _528
REMARK  217  A    between atoms: _528  and  _529
REMARK  218  A    between atoms: _531  and  _533
REMARK  219  A    between atoms: _533  and  _534
REMARK  220  A    between atoms: _533  and  _536
REMARK  221  A    between atoms: _536  and  _537
REMARK  222  A    between atoms: _537  and  _538
REMARK  223  A    between atoms: _538  and  _539
REMARK  224  A    between atoms: _548  and  _550
REMARK  225  A    between atoms: _550  and  _551
REMARK  226  A    between atoms: _550  and  _553
REMARK  227  A    between atoms: _553  and  _554
REMARK                            x       y       z     vdW  Elec       q    Type
REMARK                         _______ _______ _______ _____ _____    ______ ____
ROOT
ATOM      1  O   HOH     1       9.820  17.490  13.926  0.00  0.00    +0.000 OA
ENDROOT
TORSDOF 0
REMARK  Name = ../refined-set-2016/1hxw/1hxw_pocket.pdb
REMARK  227 active torsions:
REMARK  status: ('A' for Active; 'I' for Inactive)
REMARK    1  A    between atoms: _1  and  _3
REMARK    2  A    between atoms: _3  and  _4
REMARK    3  A    between atoms: _3  and  _6
REMARK    4  A    between atoms: _6  and  _7
REMARK    5  A    between atoms: _7  and  _8
REMARK    6  A    between atoms: _8  and  _9
REMARK    7  A    between atoms: _18  and  _20
REMARK    8  A    between atoms: _20  and  _21
REMARK    9  A    between atoms: _20  and  _23
REMARK   10  A    between atoms: _23  and  _24
REMARK   11  A    between atoms: _27  and  _29
REMARK   12  A    between atoms: _29  and  _30
REMARK   13  A    between atoms: _29  and  _32
REMARK   14  A    between atoms: _32  and  _33
REMARK   15  A    between atoms: _36  and  _38
REMARK   16  A    between atoms: _38  and  _39
REMARK   17  A    between atoms: _38  and  _41
REMARK   18  A    between atoms: _41  and  _42
REMARK   19  A    between atoms: _45  and  _47
REMARK   20  A    between atoms: _47  and  _48
REMARK   21  A    between atoms: _47  and  _50
REMARK   22  A    between atoms: _50  and  _51
REMARK   23  A    between atoms: _54  and  _56
REMARK   24  A    between atoms: _56  and  _57
REMARK   25  A    between atoms: _59  and  _61
REMARK   26  A    between atoms: _61  and  _62
REMARK   27  A    between atoms: _65  and  _67
REMARK   28  A    between atoms: _67  and  _68
REMARK   29  A    between atoms: _67  and  _70
REMARK   30  A    between atoms: _70  and  _71
REMARK   31  A    between atoms: _74  and  _76
REMARK   32  A    between atoms: _76  and  _77
REMARK   33  A    between atoms: _76  and  _79
REMARK   34  A    between atoms: _79  and  _80
REMARK   35  A    between atoms: _83  and  _85
REMARK   36  A    between atoms: _85  and  _86
REMARK   37  A    between atoms: _85  and  _88
REMARK   38  A    between atoms: _88  and  _89
REMARK   39  A    between atoms: _92  and  _94
REMARK   40  A    between atoms: _94  and  _95
REMARK   41  A    between atoms: _94  and  _97
REMARK   42  A    between atoms: _100  and  _102
REMARK   43  A    between atoms: _102  and  _103
REMARK   44  A    between atoms: _102  and  _105
REMARK   45  A    between atoms: _105  and  _106
REMARK   46  A    between atoms: _106  and  _107
REMARK   47  A    between atoms: _107  and  _108
REMARK   48  A    between atoms: _108  and  _109
REMARK   49  A    between atoms: _113  and  _115
REMARK   50  A    between atoms: _115  and  _116
REMARK   51  A    between atoms: _115  and  _118
REMARK   52  A    between atoms: _118  and  _119
REMARK   53  A    between atoms: _119  and  _120
REMARK   54  A    between atoms: _122  and  _124
REMARK   55  A    between atoms: _124  and  _125
REMARK   56  A    between atoms: _124  and  _127
REMARK   57  A    between atoms: _127  and  _128
REMARK   58  A    between atoms: _131  and  _133
REMARK   59  A    between atoms: _133  and  _134
REMARK   60  A    between atoms: _136  and  _138
REMARK   61  A    between atoms: _138  and  _139
REMARK   62  A    between atoms: _141  and  _143
REMARK   63  A    between atoms: _143  and  _144
REMARK   64  A    between atoms: _143  and  _146
REMARK   65  A    between atoms: _146  and  _147
REMARK   66  A    between atoms: _150  and  _152
REMARK   67  A    between atoms: _152  and  _153
REMARK   68  A    between atoms: _155  and  _157
REMARK   69  A    between atoms: _157  and  _158
REMARK   70  A    between atoms: _160  and  _162
REMARK   71  A    between atoms: _162  and  _163
REMARK   72  A    between atoms: _162  and  _165
REMARK   73  A    between atoms: _165  and  _166
REMARK   74  A    between atoms: _172  and  _174
REMARK   75  A    between atoms: _174  and  _175
REMARK   76  A    between atoms: _174  and  _177
REMARK   77  A    between atoms: _177  and  _178
REMARK   78  A    between atoms: _181  and  _183
REMARK   79  A    between atoms: _183  and  _184
REMARK   80  A    between atoms: _183  and  _186
REMARK   81  A    between atoms: _186  and  _187
REMARK   82  A    between atoms: _191  and  _192
REMARK   83  A    between atoms: _197  and  _199
REMARK   84  A    between atoms: _199  and  _200
REMARK   85  A    between atoms: _199  and  _202
REMARK   86  A    between atoms: _202  and  _203
REMARK   87  A    between atoms: _207  and  _208
REMARK   88  A    between atoms: _213  and  _215
REMARK   89  A    between atoms: _215  and  _216
REMARK   90  A    between atoms: _215  and  _218
REMARK   91  A    between atoms: _221  and  _223
REMARK   92  A    between atoms: _223  and  _224
REMARK   93  A    between atoms: _223  and  _226
REMARK   94  A    between atoms: _226  and  _227
REMARK   95  A    between atoms: _232  and  _234
REMARK   96  A    between atoms: _234  and  _235
REMARK   97  A    between atoms: _234  and  _237
REMARK   98  A    between atoms: _237  and  _238
REMARK   99  A    between atoms: _241  and  _243
REMARK  100  A    between atoms: _243  and  _244
REMARK  101  A    between atoms: _246  and  _248
REMARK  102  A    between atoms: _248  and  _249
REMARK  103  A    between atoms: _248  and  _251
REMARK  104  A    between atoms: _251  and  _252
REMARK  105  A    between atoms: _252  and  _253
REMARK  106  A    between atoms: _253  and  _254
REMARK  107  A    between atoms: _263  and  _265
REMARK  108  A    between atoms: _265  and  _266
REMARK  109  A    between atoms: _265  and  _268
REMARK  110  A    between atoms: _268  and  _269
REMARK  111  A    between atoms: _269  and  _270
REMARK  112  A    between atoms: _270  and  _271
REMARK  113  A    between atoms: _280  and  _282
REMARK  114  A    between atoms: _282  and  _283
REMARK  115  A    between atoms: _282  and  _285
REMARK  116  A    between atoms: _285  and  _286
REMARK  117  A    between atoms: _289  and  _291
REMARK  118  A    between atoms: _291  and  _292
REMARK  119  A    between atoms: _291  and  _294
REMARK  120  A    between atoms: _294  and  _295
REMARK  121  A    between atoms: _298  and  _300
REMARK  122  A    between atoms: _300  and  _301
REMARK  123  A    between atoms: _300  and  _303
REMARK  124  A    between atoms: _303  and  _304
REMARK  125  A    between atoms: _307  and  _309
REMARK  126  A    between atoms: _309  and  _310
REMARK  127  A    between atoms: _309  and  _312
REMARK  128  A    between atoms: _312  and  _313
REMARK  129  A    between atoms: _316  and  _318
REMARK  130  A    between atoms: _318  and  _319
REMARK  131  A    between atoms: _318  and  _321
REMARK  132  A    between atoms: _321  and  _322
REMARK  133  A    between atoms: _325  and  _327
REMARK  134  A    between atoms: _327  and  _328
REMARK  135  A    between atoms: _330  and  _332
REMARK  136  A    between atoms: _332  and  _333
REMARK  137  A    between atoms: _336  and  _338
REMARK  138  A    between atoms: _338  and  _339
REMARK  139  A    between atoms: _338  and  _341
REMARK  140  A    between atoms: _341  and  _342
REMARK  141  A    between atoms: _345  and  _347
REMARK  142  A    between atoms: _347  and  _348
REMARK  143  A    between atoms: _347  and  _350
REMARK  144  A    between atoms: _350  and  _351
REMARK  145  A    between atoms: _354  and  _356
REMARK  146  A    between atoms: _356  and  _357
REMARK  147  A    between atoms: _356  and  _359
REMARK  148  A    between atoms: _359  and  _360
REMARK  149  A    between atoms: _363  and  _365
REMARK  150  A    between atoms: _365  and  _366
REMARK  151  A    between atoms: _365  and  _368
REMARK  152  A    between atoms: _371  and  _373
REMARK  153  A    between atoms: _373  and  _374
REMARK  154  A    between atoms: _373  and  _376
REMARK  155  A    between atoms: _376  and  _377
REMARK  156  A    between atoms: _380  and  _382
REMARK  157  A    between atoms: _382  and  _383
REMARK  158  A    between atoms: _382  and  _385
REMARK  159  A    between atoms: _385  and  _386
REMARK  160  A    between atoms: _386  and  _387
REMARK  161  A    between atoms: _387  and  _388
REMARK  162  A    between atoms: _388  and  _389
REMARK  163  A    between atoms: _393  and  _395
REMARK  164  A    between atoms: _395  and  _396
REMARK  165  A    between atoms: _395  and  _398
REMARK  166  A    between atoms: _398  and  _399
REMARK  167  A    between atoms: _399  and  _400
REMARK  168  A    between atoms: _402  and  _404
REMARK  169  A    between atoms: _404  and  _405
REMARK  170  A    between atoms: _404  and  _407
REMARK  171  A    between atoms: _407  and  _408
REMARK  172  A    between atoms: _411  and  _413
REMARK  173  A    between atoms: _413  and  _414
REMARK  174  A    between atoms: _416  and  _418
REMARK  175  A    between atoms: _418  and  _419
REMARK  176  A    between atoms: _421  and  _423
REMARK  177  A    between atoms: _423  and  _424
REMARK  178  A    between atoms: _423  and  _426
REMARK  179  A    between atoms: _426  and  _427
REMARK  180  A    between atoms: _430  and  _432
REMARK  181  A    between atoms: _432  and  _433
REMARK  182  A    between atoms: _435  and  _437
REMARK  183  A    between atoms: _437  and  _438
REMARK  184  A    between atoms: _440  and  _442
REMARK  185  A    between atoms: _442  and  _443
REMARK  186  A    between atoms: _442  and  _445
REMARK  187  A    between atoms: _445  and  _446
REMARK  188  A    between atoms: _449  and  _451
REMARK  189  A    between atoms: _451  and  _452
REMARK  190  A    between atoms: _451  and  _454
REMARK  191  A    between atoms: _457  and  _459
REMARK  192  A    between atoms: _459  and  _460
REMARK  193  A    between atoms: _459  and  _462
REMARK  194  A    between atoms: _462  and  _463
REMARK  195  A    between atoms: _467  and  _468
REMARK  196  A    between atoms: _473  and  _475
REMARK  197  A    between atoms: _475  and  _476
REMARK  198  A    between atoms: _475  and  _478
REMARK  199  A    between atoms: _478  and  _479
REMARK  200  A    between atoms: _483  and  _484
REMARK  201  A    between atoms: _489  and  _491
REMARK  202  A    between atoms: _491  and  _492
REMARK  203  A    between atoms: _491  and  _494
REMARK  204  A    between atoms: _497  and  _499
REMARK  205  A    between atoms: _499  and  _500
REMARK  206  A    between atoms: _499  and  _502
REMARK  207  A    between atoms: _502  and  _503
REMARK  208  A    between atoms: _508  and  _510
REMARK  209  A    between atoms: _510  and  _511
REMARK  210  A    between atoms: _510  and  _513
REMARK  211  A    between atoms: _513  and  _514
REMARK  212  A    between atoms: _517  and  _519
REMARK  213  A    between atoms: _519  and  _520
REMARK  214  A    between atoms: _519  and  _522
REMARK  215  A    between atoms: _522  and  _523
REMARK  216  A    between atoms: _526  and  _528
REMARK  217  A    between atoms: _528  and  _529
REMARK  218  A    between atoms: _531  and  _533
REMARK  219  A    between atoms: _533  and  _534
REMARK  220  A    between atoms: _533  and  _536
REMARK  221  A    between atoms: _536  and  _537
REMARK  222  A    between atoms: _537  and  _538
REMARK  223  A    between atoms: _538  and  _539
REMARK  224  A    between atoms: _548  and  _550
REMARK  225  A    between atoms: _550  and  _551
REMARK  226  A    between atoms: _550  and  _553
REMARK  227  A    between atoms: _553  and  _554
REMARK                            x       y       z     vdW  Elec       q    Type
REMARK                         _______ _______ _______ _____ _____    ______ ____
ROOT
ATOM      1  O   HOH     1      20.572  14.894   3.719  0.00  0.00    +0.000 OA
ENDROOT
TORSDOF 0
REMARK  Name = ../refined-set-2016/1hxw/1hxw_pocket.pdb
REMARK  227 active torsions:
REMARK  status: ('A' for Active; 'I' for Inactive)
REMARK    1  A    between atoms: _1  and  _3
REMARK    2  A    between atoms: _3  and  _4
REMARK    3  A    between atoms: _3  and  _6
REMARK    4  A    between atoms: _6  and  _7
REMARK    5  A    between atoms: _7  and  _8
REMARK    6  A    between atoms: _8  and  _9
REMARK    7  A    between atoms: _18  and  _20
REMARK    8  A    between atoms: _20  and  _21
REMARK    9  A    between atoms: _20  and  _23
REMARK   10  A    between atoms: _23  and  _24
REMARK   11  A    between atoms: _27  and  _29
REMARK   12  A    between atoms: _29  and  _30
REMARK   13  A    between atoms: _29  and  _32
REMARK   14  A    between atoms: _32  and  _33
REMARK   15  A    between atoms: _36  and  _38
REMARK   16  A    between atoms: _38  and  _39
REMARK   17  A    between atoms: _38  and  _41
REMARK   18  A    between atoms: _41  and  _42
REMARK   19  A    between atoms: _45  and  _47
REMARK   20  A    between atoms: _47  and  _48
REMARK   21  A    between atoms: _47  and  _50
REMARK   22  A    between atoms: _50  and  _51
REMARK   23  A    between atoms: _54  and  _56
REMARK   24  A    between atoms: _56  and  _57
REMARK   25  A    between atoms: _59  and  _61
REMARK   26  A    between atoms: _61  and  _62
REMARK   27  A    between atoms: _65  and  _67
REMARK   28  A    between atoms: _67  and  _68
REMARK   29  A    between atoms: _67  and  _70
REMARK   30  A    between atoms: _70  and  _71
REMARK   31  A    between atoms: _74  and  _76
REMARK   32  A    between atoms: _76  and  _77
REMARK   33  A    between atoms: _76  and  _79
REMARK   34  A    between atoms: _79  and  _80
REMARK   35  A    between atoms: _83  and  _85
REMARK   36  A    between atoms: _85  and  _86
REMARK   37  A    between atoms: _85  and  _88
REMARK   38  A    between atoms: _88  and  _89
REMARK   39  A    between atoms: _92  and  _94
REMARK   40  A    between atoms: _94  and  _95
REMARK   41  A    between atoms: _94  and  _97
REMARK   42  A    between atoms: _100  and  _102
REMARK   43  A    between atoms: _102  and  _103
REMARK   44  A    between atoms: _102  and  _105
REMARK   45  A    between atoms: _105  and  _106
REMARK   46  A    between atoms: _106  and  _107
REMARK   47  A    between atoms: _107  and  _108
REMARK   48  A    between atoms: _108  and  _109
REMARK   49  A    between atoms: _113  and  _115
REMARK   50  A    between atoms: _115  and  _116
REMARK   51  A    between atoms: _115  and  _118
REMARK   52  A    between atoms: _118  and  _119
REMARK   53  A    between atoms: _119  and  _120
REMARK   54  A    between atoms: _122  and  _124
REMARK   55  A    between atoms: _124  and  _125
REMARK   56  A    between atoms: _124  and  _127
REMARK   57  A    between atoms: _127  and  _128
REMARK   58  A    between atoms: _131  and  _133
REMARK   59  A    between atoms: _133  and  _134
REMARK   60  A    between atoms: _136  and  _138
REMARK   61  A    between atoms: _138  and  _139
REMARK   62  A    between atoms: _141  and  _143
REMARK   63  A    between atoms: _143  and  _144
REMARK   64  A    between atoms: _143  and  _146
REMARK   65  A    between atoms: _146  and  _147
REMARK   66  A    between atoms: _150  and  _152
REMARK   67  A    between atoms: _152  and  _153
REMARK   68  A    between atoms: _155  and  _157
REMARK   69  A    between atoms: _157  and  _158
REMARK   70  A    between atoms: _160  and  _162
REMARK   71  A    between atoms: _162  and  _163
REMARK   72  A    between atoms: _162  and  _165
REMARK   73  A    between atoms: _165  and  _166
REMARK   74  A    between atoms: _172  and  _174
REMARK   75  A    between atoms: _174  and  _175
REMARK   76  A    between atoms: _174  and  _177
REMARK   77  A    between atoms: _177  and  _178
REMARK   78  A    between atoms: _181  and  _183
REMARK   79  A    between atoms: _183  and  _184
REMARK   80  A    between atoms: _183  and  _186
REMARK   81  A    between atoms: _186  and  _187
REMARK   82  A    between atoms: _191  and  _192
REMARK   83  A    between atoms: _197  and  _199
REMARK   84  A    between atoms: _199  and  _200
REMARK   85  A    between atoms: _199  and  _202
REMARK   86  A    between atoms: _202  and  _203
REMARK   87  A    between atoms: _207  and  _208
REMARK   88  A    between atoms: _213  and  _215
REMARK   89  A    between atoms: _215  and  _216
REMARK   90  A    between atoms: _215  and  _218
REMARK   91  A    between atoms: _221  and  _223
REMARK   92  A    between atoms: _223  and  _224
REMARK   93  A    between atoms: _223  and  _226
REMARK   94  A    between atoms: _226  and  _227
REMARK   95  A    between atoms: _232  and  _234
REMARK   96  A    between atoms: _234  and  _235
REMARK   97  A    between atoms: _234  and  _237
REMARK   98  A    between atoms: _237  and  _238
REMARK   99  A    between atoms: _241  and  _243
REMARK  100  A    between atoms: _243  and  _244
REMARK  101  A    between atoms: _246  and  _248
REMARK  102  A    between atoms: _248  and  _249
REMARK  103  A    between atoms: _248  and  _251
REMARK  104  A    between atoms: _251  and  _252
REMARK  105  A    between atoms: _252  and  _253
REMARK  106  A    between atoms: _253  and  _254
REMARK  107  A    between atoms: _263  and  _265
REMARK  108  A    between atoms: _265  and  _266
REMARK  109  A    between atoms: _265  and  _268
REMARK  110  A    between atoms: _268  and  _269
REMARK  111  A    between atoms: _269  and  _270
REMARK  112  A    between atoms: _270  and  _271
REMARK  113  A    between atoms: _280  and  _282
REMARK  114  A    between atoms: _282  and  _283
REMARK  115  A    between atoms: _282  and  _285
REMARK  116  A    between atoms: _285  and  _286
REMARK  117  A    between atoms: _289  and  _291
REMARK  118  A    between atoms: _291  and  _292
REMARK  119  A    between atoms: _291  and  _294
REMARK  120  A    between atoms: _294  and  _295
REMARK  121  A    between atoms: _298  and  _300
REMARK  122  A    between atoms: _300  and  _301
REMARK  123  A    between atoms: _300  and  _303
REMARK  124  A    between atoms: _303  and  _304
REMARK  125  A    between atoms: _307  and  _309
REMARK  126  A    between atoms: _309  and  _310
REMARK  127  A    between atoms: _309  and  _312
REMARK  128  A    between atoms: _312  and  _313
REMARK  129  A    between atoms: _316  and  _318
REMARK  130  A    between atoms: _318  and  _319
REMARK  131  A    between atoms: _318  and  _321
REMARK  132  A    between atoms: _321  and  _322
REMARK  133  A    between atoms: _325  and  _327
REMARK  134  A    between atoms: _327  and  _328
REMARK  135  A    between atoms: _330  and  _332
REMARK  136  A    between atoms: _332  and  _333
REMARK  137  A    between atoms: _336  and  _338
REMARK  138  A    between atoms: _338  and  _339
REMARK  139  A    between atoms: _338  and  _341
REMARK  140  A    between atoms: _341  and  _342
REMARK  141  A    between atoms: _345  and  _347
REMARK  142  A    between atoms: _347  and  _348
REMARK  143  A    between atoms: _347  and  _350
REMARK  144  A    between atoms: _350  and  _351
REMARK  145  A    between atoms: _354  and  _356
REMARK  146  A    between atoms: _356  and  _357
REMARK  147  A    between atoms: _356  and  _359
REMARK  148  A    between atoms: _359  and  _360
REMARK  149  A    between atoms: _363  and  _365
REMARK  150  A    between atoms: _365  and  _366
REMARK  151  A    between atoms: _365  and  _368
REMARK  152  A    between atoms: _371  and  _373
REMARK  153  A    between atoms: _373  and  _374
REMARK  154  A    between atoms: _373  and  _376
REMARK  155  A    between atoms: _376  and  _377
REMARK  156  A    between atoms: _380  and  _382
REMARK  157  A    between atoms: _382  and  _383
REMARK  158  A    between atoms: _382  and  _385
REMARK  159  A    between atoms: _385  and  _386
REMARK  160  A    between atoms: _386  and  _387
REMARK  161  A    between atoms: _387  and  _388
REMARK  162  A    between atoms: _388  and  _389
REMARK  163  A    between atoms: _393  and  _395
REMARK  164  A    between atoms: _395  and  _396
REMARK  165  A    between atoms: _395  and  _398
REMARK  166  A    between atoms: _398  and  _399
REMARK  167  A    between atoms: _399  and  _400
REMARK  168  A    between atoms: _402  and  _404
REMARK  169  A    between atoms: _404  and  _405
REMARK  170  A    between atoms: _404  and  _407
REMARK  171  A    between atoms: _407  and  _408
REMARK  172  A    between atoms: _411  and  _413
REMARK  173  A    between atoms: _413  and  _414
REMARK  174  A    between atoms: _416  and  _418
REMARK  175  A    between atoms: _418  and  _419
REMARK  176  A    between atoms: _421  and  _423
REMARK  177  A    between atoms: _423  and  _424
REMARK  178  A    between atoms: _423  and  _426
REMARK  179  A    between atoms: _426  and  _427
REMARK  180  A    between atoms: _430  and  _432
REMARK  181  A    between atoms: _432  and  _433
REMARK  182  A    between atoms: _435  and  _437
REMARK  183  A    between atoms: _437  and  _438
REMARK  184  A    between atoms: _440  and  _442
REMARK  185  A    between atoms: _442  and  _443
REMARK  186  A    between atoms: _442  and  _445
REMARK  187  A    between atoms: _445  and  _446
REMARK  188  A    between atoms: _449  and  _451
REMARK  189  A    between atoms: _451  and  _452
REMARK  190  A    between atoms: _451  and  _454
REMARK  191  A    between atoms: _457  and  _459
REMARK  192  A    between atoms: _459  and  _460
REMARK  193  A    between atoms: _459  and  _462
REMARK  194  A    between atoms: _462  and  _463
REMARK  195  A    between atoms: _467  and  _468
REMARK  196  A    between atoms: _473  and  _475
REMARK  197  A    between atoms: _475  and  _476
REMARK  198  A    between atoms: _475  and  _478
REMARK  199  A    between atoms: _478  and  _479
REMARK  200  A    between atoms: _483  and  _484
REMARK  201  A    between atoms: _489  and  _491
REMARK  202  A    between atoms: _491  and  _492
REMARK  203  A    between atoms: _491  and  _494
REMARK  204  A    between atoms: _497  and  _499
REMARK  205  A    between atoms: _499  and  _500
REMARK  206  A    between atoms: _499  and  _502
REMARK  207  A    between atoms: _502  and  _503
REMARK  208  A    between atoms: _508  and  _510
REMARK  209  A    between atoms: _510  and  _511
REMARK  210  A    between atoms: _510  and  _513
REMARK  211  A    between atoms: _513  and  _514
REMARK  212  A    between atoms: _517  and  _519
REMARK  213  A    between atoms: _519  and  _520
REMARK  214  A    between atoms: _519  and  _522
REMARK  215  A    between atoms: _522  and  _523
REMARK  216  A    between atoms: _526  and  _528
REMARK  217  A    between atoms: _528  and  _529
REMARK  218  A    between atoms: _531  and  _533
REMARK  219  A    between atoms: _533  and  _534
REMARK  220  A    between atoms: _533  and  _536
REMARK  221  A    between atoms: _536  and  _537
REMARK  222  A    between atoms: _537  and  _538
REMARK  223  A    between atoms: _538  and  _539
REMARK  224  A    between atoms: _548  and  _550
REMARK  225  A    between atoms: _550  and  _551
REMARK  226  A    between atoms: _550  and  _553
REMARK  227  A    between atoms: _553  and  _554
REMARK                            x       y       z     vdW  Elec       q    Type
REMARK                         _______ _______ _______ _____ _____    ______ ____
ROOT
ATOM      1  O   HOH     1      18.087  14.569   6.292  0.00  0.00    +0.000 OA
ENDROOT
TORSDOF 0
REMARK  Name = ../refined-set-2016/1hxw/1hxw_pocket.pdb
REMARK  227 active torsions:
REMARK  status: ('A' for Active; 'I' for Inactive)
REMARK    1  A    between atoms: _1  and  _3
REMARK    2  A    between atoms: _3  and  _4
REMARK    3  A    between atoms: _3  and  _6
REMARK    4  A    between atoms: _6  and  _7
REMARK    5  A    between atoms: _7  and  _8
REMARK    6  A    between atoms: _8  and  _9
REMARK    7  A    between atoms: _18  and  _20
REMARK    8  A    between atoms: _20  and  _21
REMARK    9  A    between atoms: _20  and  _23
REMARK   10  A    between atoms: _23  and  _24
REMARK   11  A    between atoms: _27  and  _29
REMARK   12  A    between atoms: _29  and  _30
REMARK   13  A    between atoms: _29  and  _32
REMARK   14  A    between atoms: _32  and  _33
REMARK   15  A    between atoms: _36  and  _38
REMARK   16  A    between atoms: _38  and  _39
REMARK   17  A    between atoms: _38  and  _41
REMARK   18  A    between atoms: _41  and  _42
REMARK   19  A    between atoms: _45  and  _47
REMARK   20  A    between atoms: _47  and  _48
REMARK   21  A    between atoms: _47  and  _50
REMARK   22  A    between atoms: _50  and  _51
REMARK   23  A    between atoms: _54  and  _56
REMARK   24  A    between atoms: _56  and  _57
REMARK   25  A    between atoms: _59  and  _61
REMARK   26  A    between atoms: _61  and  _62
REMARK   27  A    between atoms: _65  and  _67
REMARK   28  A    between atoms: _67  and  _68
REMARK   29  A    between atoms: _67  and  _70
REMARK   30  A    between atoms: _70  and  _71
REMARK   31  A    between atoms: _74  and  _76
REMARK   32  A    between atoms: _76  and  _77
REMARK   33  A    between atoms: _76  and  _79
REMARK   34  A    between atoms: _79  and  _80
REMARK   35  A    between atoms: _83  and  _85
REMARK   36  A    between atoms: _85  and  _86
REMARK   37  A    between atoms: _85  and  _88
REMARK   38  A    between atoms: _88  and  _89
REMARK   39  A    between atoms: _92  and  _94
REMARK   40  A    between atoms: _94  and  _95
REMARK   41  A    between atoms: _94  and  _97
REMARK   42  A    between atoms: _100  and  _102
REMARK   43  A    between atoms: _102  and  _103
REMARK   44  A    between atoms: _102  and  _105
REMARK   45  A    between atoms: _105  and  _106
REMARK   46  A    between atoms: _106  and  _107
REMARK   47  A    between atoms: _107  and  _108
REMARK   48  A    between atoms: _108  and  _109
REMARK   49  A    between atoms: _113  and  _115
REMARK   50  A    between atoms: _115  and  _116
REMARK   51  A    between atoms: _115  and  _118
REMARK   52  A    between atoms: _118  and  _119
REMARK   53  A    between atoms: _119  and  _120
REMARK   54  A    between atoms: _122  and  _124
REMARK   55  A    between atoms: _124  and  _125
REMARK   56  A    between atoms: _124  and  _127
REMARK   57  A    between atoms: _127  and  _128
REMARK   58  A    between atoms: _131  and  _133
REMARK   59  A    between atoms: _133  and  _134
REMARK   60  A    between atoms: _136  and  _138
REMARK   61  A    between atoms: _138  and  _139
REMARK   62  A    between atoms: _141  and  _143
REMARK   63  A    between atoms: _143  and  _144
REMARK   64  A    between atoms: _143  and  _146
REMARK   65  A    between atoms: _146  and  _147
REMARK   66  A    between atoms: _150  and  _152
REMARK   67  A    between atoms: _152  and  _153
REMARK   68  A    between atoms: _155  and  _157
REMARK   69  A    between atoms: _157  and  _158
REMARK   70  A    between atoms: _160  and  _162
REMARK   71  A    between atoms: _162  and  _163
REMARK   72  A    between atoms: _162  and  _165
REMARK   73  A    between atoms: _165  and  _166
REMARK   74  A    between atoms: _172  and  _174
REMARK   75  A    between atoms: _174  and  _175
REMARK   76  A    between atoms: _174  and  _177
REMARK   77  A    between atoms: _177  and  _178
REMARK   78  A    between atoms: _181  and  _183
REMARK   79  A    between atoms: _183  and  _184
REMARK   80  A    between atoms: _183  and  _186
REMARK   81  A    between atoms: _186  and  _187
REMARK   82  A    between atoms: _191  and  _192
REMARK   83  A    between atoms: _197  and  _199
REMARK   84  A    between atoms: _199  and  _200
REMARK   85  A    between atoms: _199  and  _202
REMARK   86  A    between atoms: _202  and  _203
REMARK   87  A    between atoms: _207  and  _208
REMARK   88  A    between atoms: _213  and  _215
REMARK   89  A    between atoms: _215  and  _216
REMARK   90  A    between atoms: _215  and  _218
REMARK   91  A    between atoms: _221  and  _223
REMARK   92  A    between atoms: _223  and  _224
REMARK   93  A    between atoms: _223  and  _226
REMARK   94  A    between atoms: _226  and  _227
REMARK   95  A    between atoms: _232  and  _234
REMARK   96  A    between atoms: _234  and  _235
REMARK   97  A    between atoms: _234  and  _237
REMARK   98  A    between atoms: _237  and  _238
REMARK   99  A    between atoms: _241  and  _243
REMARK  100  A    between atoms: _243  and  _244
REMARK  101  A    between atoms: _246  and  _248
REMARK  102  A    between atoms: _248  and  _249
REMARK  103  A    between atoms: _248  and  _251
REMARK  104  A    between atoms: _251  and  _252
REMARK  105  A    between atoms: _252  and  _253
REMARK  106  A    between atoms: _253  and  _254
REMARK  107  A    between atoms: _263  and  _265
REMARK  108  A    between atoms: _265  and  _266
REMARK  109  A    between atoms: _265  and  _268
REMARK  110  A    between atoms: _268  and  _269
REMARK  111  A    between atoms: _269  and  _270
REMARK  112  A    between atoms: _270  and  _271
REMARK  113  A    between atoms: _280  and  _282
REMARK  114  A    between atoms: _282  and  _283
REMARK  115  A    between atoms: _282  and  _285
REMARK  116  A    between atoms: _285  and  _286
REMARK  117  A    between atoms: _289  and  _291
REMARK  118  A    between atoms: _291  and  _292
REMARK  119  A    between atoms: _291  and  _294
REMARK  120  A    between atoms: _294  and  _295
REMARK  121  A    between atoms: _298  and  _300
REMARK  122  A    between atoms: _300  and  _301
REMARK  123  A    between atoms: _300  and  _303
REMARK  124  A    between atoms: _303  and  _304
REMARK  125  A    between atoms: _307  and  _309
REMARK  126  A    between atoms: _309  and  _310
REMARK  127  A    between atoms: _309  and  _312
REMARK  128  A    between atoms: _312  and  _313
REMARK  129  A    between atoms: _316  and  _318
REMARK  130  A    between atoms: _318  and  _319
REMARK  131  A    between atoms: _318  and  _321
REMARK  132  A    between atoms: _321  and  _322
REMARK  133  A    between atoms: _325  and  _327
REMARK  134  A    between atoms: _327  and  _328
REMARK  135  A    between atoms: _330  and  _332
REMARK  136  A    between atoms: _332  and  _333
REMARK  137  A    between atoms: _336  and  _338
REMARK  138  A    between atoms: _338  and  _339
REMARK  139  A    between atoms: _338  and  _341
REMARK  140  A    between atoms: _341  and  _342
REMARK  141  A    between atoms: _345  and  _347
REMARK  142  A    between atoms: _347  and  _348
REMARK  143  A    between atoms: _347  and  _350
REMARK  144  A    between atoms: _350  and  _351
REMARK  145  A    between atoms: _354  and  _356
REMARK  146  A    between atoms: _356  and  _357
REMARK  147  A    between atoms: _356  and  _359
REMARK  148  A    between atoms: _359  and  _360
REMARK  149  A    between atoms: _363  and  _365
REMARK  150  A    between atoms: _365  and  _366
REMARK  151  A    between atoms: _365  and  _368
REMARK  152  A    between atoms: _371  and  _373
REMARK  153  A    between atoms: _373  and  _374
REMARK  154  A    between atoms: _373  and  _376
REMARK  155  A    between atoms: _376  and  _377
REMARK  156  A    between atoms: _380  and  _382
REMARK  157  A    between atoms: _382  and  _383
REMARK  158  A    between atoms: _382  and  _385
REMARK  159  A    between atoms: _385  and  _386
REMARK  160  A    between atoms: _386  and  _387
REMARK  161  A    between atoms: _387  and  _388
REMARK  162  A    between atoms: _388  and  _389
REMARK  163  A    between atoms: _393  and  _395
REMARK  164  A    between atoms: _395  and  _396
REMARK  165  A    between atoms: _395  and  _398
REMARK  166  A    between atoms: _398  and  _399
REMARK  167  A    between atoms: _399  and  _400
REMARK  168  A    between atoms: _402  and  _404
REMARK  169  A    between atoms: _404  and  _405
REMARK  170  A    between atoms: _404  and  _407
REMARK  171  A    between atoms: _407  and  _408
REMARK  172  A    between atoms: _411  and  _413
REMARK  173  A    between atoms: _413  and  _414
REMARK  174  A    between atoms: _416  and  _418
REMARK  175  A    between atoms: _418  and  _419
REMARK  176  A    between atoms: _421  and  _423
REMARK  177  A    between atoms: _423  and  _424
REMARK  178  A    between atoms: _423  and  _426
REMARK  179  A    between atoms: _426  and  _427
REMARK  180  A    between atoms: _430  and  _432
REMARK  181  A    between atoms: _432  and  _433
REMARK  182  A    between atoms: _435  and  _437
REMARK  183  A    between atoms: _437  and  _438
REMARK  184  A    between atoms: _440  and  _442
REMARK  185  A    between atoms: _442  and  _443
REMARK  186  A    between atoms: _442  and  _445
REMARK  187  A    between atoms: _445  and  _446
REMARK  188  A    between atoms: _449  and  _451
REMARK  189  A    between atoms: _451  and  _452
REMARK  190  A    between atoms: _451  and  _454
REMARK  191  A    between atoms: _457  and  _459
REMARK  192  A    between atoms: _459  and  _460
REMARK  193  A    between atoms: _459  and  _462
REMARK  194  A    between atoms: _462  and  _463
REMARK  195  A    between atoms: _467  and  _468
REMARK  196  A    between atoms: _473  and  _475
REMARK  197  A    between atoms: _475  and  _476
REMARK  198  A    between atoms: _475  and  _478
REMARK  199  A    between atoms: _478  and  _479
REMARK  200  A    between atoms: _483  and  _484
REMARK  201  A    between atoms: _489  and  _491
REMARK  202  A    between atoms: _491  and  _492
REMARK  203  A    between atoms: _491  and  _494
REMARK  204  A    between atoms: _497  and  _499
REMARK  205  A    between atoms: _499  and  _500
REMARK  206  A    between atoms: _499  and  _502
REMARK  207  A    between atoms: _502  and  _503
REMARK  208  A    between atoms: _508  and  _510
REMARK  209  A    between atoms: _510  and  _511
REMARK  210  A    between atoms: _510  and  _513
REMARK  211  A    between atoms: _513  and  _514
REMARK  212  A    between atoms: _517  and  _519
REMARK  213  A    between atoms: _519  and  _520
REMARK  214  A    between atoms: _519  and  _522
REMARK  215  A    between atoms: _522  and  _523
REMARK  216  A    between atoms: _526  and  _528
REMARK  217  A    between atoms: _528  and  _529
REMARK  218  A    between atoms: _531  and  _533
REMARK  219  A    between atoms: _533  and  _534
REMARK  220  A    between atoms: _533  and  _536
REMARK  221  A    between atoms: _536  and  _537
REMARK  222  A    between atoms: _537  and  _538
REMARK  223  A    between atoms: _538  and  _539
REMARK  224  A    between atoms: _548  and  _550
REMARK  225  A    between atoms: _550  and  _551
REMARK  226  A    between atoms: _550  and  _553
REMARK  227  A    between atoms: _553  and  _554
REMARK                            x       y       z     vdW  Elec       q    Type
REMARK                         _______ _______ _______ _____ _____    ______ ____
ROOT
ATOM      1  O   HOH     1      20.049  21.301   6.233  0.00  0.00    +0.000 OA
ENDROOT
TORSDOF 0
REMARK  Name = ../refined-set-2016/1hxw/1hxw_pocket.pdb
REMARK  227 active torsions:
REMARK  status: ('A' for Active; 'I' for Inactive)
REMARK    1  A    between atoms: _1  and  _3
REMARK    2  A    between atoms: _3  and  _4
REMARK    3  A    between atoms: _3  and  _6
REMARK    4  A    between atoms: _6  and  _7
REMARK    5  A    between atoms: _7  and  _8
REMARK    6  A    between atoms: _8  and  _9
REMARK    7  A    between atoms: _18  and  _20
REMARK    8  A    between atoms: _20  and  _21
REMARK    9  A    between atoms: _20  and  _23
REMARK   10  A    between atoms: _23  and  _24
REMARK   11  A    between atoms: _27  and  _29
REMARK   12  A    between atoms: _29  and  _30
REMARK   13  A    between atoms: _29  and  _32
REMARK   14  A    between atoms: _32  and  _33
REMARK   15  A    between atoms: _36  and  _38
REMARK   16  A    between atoms: _38  and  _39
REMARK   17  A    between atoms: _38  and  _41
REMARK   18  A    between atoms: _41  and  _42
REMARK   19  A    between atoms: _45  and  _47
REMARK   20  A    between atoms: _47  and  _48
REMARK   21  A    between atoms: _47  and  _50
REMARK   22  A    between atoms: _50  and  _51
REMARK   23  A    between atoms: _54  and  _56
REMARK   24  A    between atoms: _56  and  _57
REMARK   25  A    between atoms: _59  and  _61
REMARK   26  A    between atoms: _61  and  _62
REMARK   27  A    between atoms: _65  and  _67
REMARK   28  A    between atoms: _67  and  _68
REMARK   29  A    between atoms: _67  and  _70
REMARK   30  A    between atoms: _70  and  _71
REMARK   31  A    between atoms: _74  and  _76
REMARK   32  A    between atoms: _76  and  _77
REMARK   33  A    between atoms: _76  and  _79
REMARK   34  A    between atoms: _79  and  _80
REMARK   35  A    between atoms: _83  and  _85
REMARK   36  A    between atoms: _85  and  _86
REMARK   37  A    between atoms: _85  and  _88
REMARK   38  A    between atoms: _88  and  _89
REMARK   39  A    between atoms: _92  and  _94
REMARK   40  A    between atoms: _94  and  _95
REMARK   41  A    between atoms: _94  and  _97
REMARK   42  A    between atoms: _100  and  _102
REMARK   43  A    between atoms: _102  and  _103
REMARK   44  A    between atoms: _102  and  _105
REMARK   45  A    between atoms: _105  and  _106
REMARK   46  A    between atoms: _106  and  _107
REMARK   47  A    between atoms: _107  and  _108
REMARK   48  A    between atoms: _108  and  _109
REMARK   49  A    between atoms: _113  and  _115
REMARK   50  A    between atoms: _115  and  _116
REMARK   51  A    between atoms: _115  and  _118
REMARK   52  A    between atoms: _118  and  _119
REMARK   53  A    between atoms: _119  and  _120
REMARK   54  A    between atoms: _122  and  _124
REMARK   55  A    between atoms: _124  and  _125
REMARK   56  A    between atoms: _124  and  _127
REMARK   57  A    between atoms: _127  and  _128
REMARK   58  A    between atoms: _131  and  _133
REMARK   59  A    between atoms: _133  and  _134
REMARK   60  A    between atoms: _136  and  _138
REMARK   61  A    between atoms: _138  and  _139
REMARK   62  A    between atoms: _141  and  _143
REMARK   63  A    between atoms: _143  and  _144
REMARK   64  A    between atoms: _143  and  _146
REMARK   65  A    between atoms: _146  and  _147
REMARK   66  A    between atoms: _150  and  _152
REMARK   67  A    between atoms: _152  and  _153
REMARK   68  A    between atoms: _155  and  _157
REMARK   69  A    between atoms: _157  and  _158
REMARK   70  A    between atoms: _160  and  _162
REMARK   71  A    between atoms: _162  and  _163
REMARK   72  A    between atoms: _162  and  _165
REMARK   73  A    between atoms: _165  and  _166
REMARK   74  A    between atoms: _172  and  _174
REMARK   75  A    between atoms: _174  and  _175
REMARK   76  A    between atoms: _174  and  _177
REMARK   77  A    between atoms: _177  and  _178
REMARK   78  A    between atoms: _181  and  _183
REMARK   79  A    between atoms: _183  and  _184
REMARK   80  A    between atoms: _183  and  _186
REMARK   81  A    between atoms: _186  and  _187
REMARK   82  A    between atoms: _191  and  _192
REMARK   83  A    between atoms: _197  and  _199
REMARK   84  A    between atoms: _199  and  _200
REMARK   85  A    between atoms: _199  and  _202
REMARK   86  A    between atoms: _202  and  _203
REMARK   87  A    between atoms: _207  and  _208
REMARK   88  A    between atoms: _213  and  _215
REMARK   89  A    between atoms: _215  and  _216
REMARK   90  A    between atoms: _215  and  _218
REMARK   91  A    between atoms: _221  and  _223
REMARK   92  A    between atoms: _223  and  _224
REMARK   93  A    between atoms: _223  and  _226
REMARK   94  A    between atoms: _226  and  _227
REMARK   95  A    between atoms: _232  and  _234
REMARK   96  A    between atoms: _234  and  _235
REMARK   97  A    between atoms: _234  and  _237
REMARK   98  A    between atoms: _237  and  _238
REMARK   99  A    between atoms: _241  and  _243
REMARK  100  A    between atoms: _243  and  _244
REMARK  101  A    between atoms: _246  and  _248
REMARK  102  A    between atoms: _248  and  _249
REMARK  103  A    between atoms: _248  and  _251
REMARK  104  A    between atoms: _251  and  _252
REMARK  105  A    between atoms: _252  and  _253
REMARK  106  A    between atoms: _253  and  _254
REMARK  107  A    between atoms: _263  and  _265
REMARK  108  A    between atoms: _265  and  _266
REMARK  109  A    between atoms: _265  and  _268
REMARK  110  A    between atoms: _268  and  _269
REMARK  111  A    between atoms: _269  and  _270
REMARK  112  A    between atoms: _270  and  _271
REMARK  113  A    between atoms: _280  and  _282
REMARK  114  A    between atoms: _282  and  _283
REMARK  115  A    between atoms: _282  and  _285
REMARK  116  A    between atoms: _285  and  _286
REMARK  117  A    between atoms: _289  and  _291
REMARK  118  A    between atoms: _291  and  _292
REMARK  119  A    between atoms: _291  and  _294
REMARK  120  A    between atoms: _294  and  _295
REMARK  121  A    between atoms: _298  and  _300
REMARK  122  A    between atoms: _300  and  _301
REMARK  123  A    between atoms: _300  and  _303
REMARK  124  A    between atoms: _303  and  _304
REMARK  125  A    between atoms: _307  and  _309
REMARK  126  A    between atoms: _309  and  _310
REMARK  127  A    between atoms: _309  and  _312
REMARK  128  A    between atoms: _312  and  _313
REMARK  129  A    between atoms: _316  and  _318
REMARK  130  A    between atoms: _318  and  _319
REMARK  131  A    between atoms: _318  and  _321
REMARK  132  A    between atoms: _321  and  _322
REMARK  133  A    between atoms: _325  and  _327
REMARK  134  A    between atoms: _327  and  _328
REMARK  135  A    between atoms: _330  and  _332
REMARK  136  A    between atoms: _332  and  _333
REMARK  137  A    between atoms: _336  and  _338
REMARK  138  A    between atoms: _338  and  _339
REMARK  139  A    between atoms: _338  and  _341
REMARK  140  A    between atoms: _341  and  _342
REMARK  141  A    between atoms: _345  and  _347
REMARK  142  A    between atoms: _347  and  _348
REMARK  143  A    between atoms: _347  and  _350
REMARK  144  A    between atoms: _350  and  _351
REMARK  145  A    between atoms: _354  and  _356
REMARK  146  A    between atoms: _356  and  _357
REMARK  147  A    between atoms: _356  and  _359
REMARK  148  A    between atoms: _359  and  _360
REMARK  149  A    between atoms: _363  and  _365
REMARK  150  A    between atoms: _365  and  _366
REMARK  151  A    between atoms: _365  and  _368
REMARK  152  A    between atoms: _371  and  _373
REMARK  153  A    between atoms: _373  and  _374
REMARK  154  A    between atoms: _373  and  _376
REMARK  155  A    between atoms: _376  and  _377
REMARK  156  A    between atoms: _380  and  _382
REMARK  157  A    between atoms: _382  and  _383
REMARK  158  A    between atoms: _382  and  _385
REMARK  159  A    between atoms: _385  and  _386
REMARK  160  A    between atoms: _386  and  _387
REMARK  161  A    between atoms: _387  and  _388
REMARK  162  A    between atoms: _388  and  _389
REMARK  163  A    between atoms: _393  and  _395
REMARK  164  A    between atoms: _395  and  _396
REMARK  165  A    between atoms: _395  and  _398
REMARK  166  A    between atoms: _398  and  _399
REMARK  167  A    between atoms: _399  and  _400
REMARK  168  A    between atoms: _402  and  _404
REMARK  169  A    between atoms: _404  and  _405
REMARK  170  A    between atoms: _404  and  _407
REMARK  171  A    between atoms: _407  and  _408
REMARK  172  A    between atoms: _411  and  _413
REMARK  173  A    between atoms: _413  and  _414
REMARK  174  A    between atoms: _416  and  _418
REMARK  175  A    between atoms: _418  and  _419
REMARK  176  A    between atoms: _421  and  _423
REMARK  177  A    between atoms: _423  and  _424
REMARK  178  A    between atoms: _423  and  _426
REMARK  179  A    between atoms: _426  and  _427
REMARK  180  A    between atoms: _430  and  _432
REMARK  181  A    between atoms: _432  and  _433
REMARK  182  A    between atoms: _435  and  _437
REMARK  183  A    between atoms: _437  and  _438
REMARK  184  A    between atoms: _440  and  _442
REMARK  185  A    between atoms: _442  and  _443
REMARK  186  A    between atoms: _442  and  _445
REMARK  187  A    between atoms: _445  and  _446
REMARK  188  A    between atoms: _449  and  _451
REMARK  189  A    between atoms: _451  and  _452
REMARK  190  A    between atoms: _451  and  _454
REMARK  191  A    between atoms: _457  and  _459
REMARK  192  A    between atoms: _459  and  _460
REMARK  193  A    between atoms: _459  and  _462
REMARK  194  A    between atoms: _462  and  _463
REMARK  195  A    between atoms: _467  and  _468
REMARK  196  A    between atoms: _473  and  _475
REMARK  197  A    between atoms: _475  and  _476
REMARK  198  A    between atoms: _475  and  _478
REMARK  199  A    between atoms: _478  and  _479
REMARK  200  A    between atoms: _483  and  _484
REMARK  201  A    between atoms: _489  and  _491
REMARK  202  A    between atoms: _491  and  _492
REMARK  203  A    between atoms: _491  and  _494
REMARK  204  A    between atoms: _497  and  _499
REMARK  205  A    between atoms: _499  and  _500
REMARK  206  A    between atoms: _499  and  _502
REMARK  207  A    between atoms: _502  and  _503
REMARK  208  A    between atoms: _508  and  _510
REMARK  209  A    between atoms: _510  and  _511
REMARK  210  A    between atoms: _510  and  _513
REMARK  211  A    between atoms: _513  and  _514
REMARK  212  A    between atoms: _517  and  _519
REMARK  213  A    between atoms: _519  and  _520
REMARK  214  A    between atoms: _519  and  _522
REMARK  215  A    between atoms: _522  and  _523
REMARK  216  A    between atoms: _526  and  _528
REMARK  217  A    between atoms: _528  and  _529
REMARK  218  A    between atoms: _531  and  _533
REMARK  219  A    between atoms: _533  and  _534
REMARK  220  A    between atoms: _533  and  _536
REMARK  221  A    between atoms: _536  and  _537
REMARK  222  A    between atoms: _537  and  _538
REMARK  223  A    between atoms: _538  and  _539
REMARK  224  A    between atoms: _548  and  _550
REMARK  225  A    between atoms: _550  and  _551
REMARK  226  A    between atoms: _550  and  _553
REMARK  227  A    between atoms: _553  and  _554
REMARK                            x       y       z     vdW  Elec       q    Type
REMARK                         _______ _______ _______ _____ _____    ______ ____
ROOT
ATOM      1  O   HOH     1      23.183  12.272  -0.947  0.00  0.00    +0.000 OA
ENDROOT
TORSDOF 0
REMARK  Name = ../refined-set-2016/1hxw/1hxw_pocket.pdb
REMARK  227 active torsions:
REMARK  status: ('A' for Active; 'I' for Inactive)
REMARK    1  A    between atoms: _1  and  _3
REMARK    2  A    between atoms: _3  and  _4
REMARK    3  A    between atoms: _3  and  _6
REMARK    4  A    between atoms: _6  and  _7
REMARK    5  A    between atoms: _7  and  _8
REMARK    6  A    between atoms: _8  and  _9
REMARK    7  A    between atoms: _18  and  _20
REMARK    8  A    between atoms: _20  and  _21
REMARK    9  A    between atoms: _20  and  _23
REMARK   10  A    between atoms: _23  and  _24
REMARK   11  A    between atoms: _27  and  _29
REMARK   12  A    between atoms: _29  and  _30
REMARK   13  A    between atoms: _29  and  _32
REMARK   14  A    between atoms: _32  and  _33
REMARK   15  A    between atoms: _36  and  _38
REMARK   16  A    between atoms: _38  and  _39
REMARK   17  A    between atoms: _38  and  _41
REMARK   18  A    between atoms: _41  and  _42
REMARK   19  A    between atoms: _45  and  _47
REMARK   20  A    between atoms: _47  and  _48
REMARK   21  A    between atoms: _47  and  _50
REMARK   22  A    between atoms: _50  and  _51
REMARK   23  A    between atoms: _54  and  _56
REMARK   24  A    between atoms: _56  and  _57
REMARK   25  A    between atoms: _59  and  _61
REMARK   26  A    between atoms: _61  and  _62
REMARK   27  A    between atoms: _65  and  _67
REMARK   28  A    between atoms: _67  and  _68
REMARK   29  A    between atoms: _67  and  _70
REMARK   30  A    between atoms: _70  and  _71
REMARK   31  A    between atoms: _74  and  _76
REMARK   32  A    between atoms: _76  and  _77
REMARK   33  A    between atoms: _76  and  _79
REMARK   34  A    between atoms: _79  and  _80
REMARK   35  A    between atoms: _83  and  _85
REMARK   36  A    between atoms: _85  and  _86
REMARK   37  A    between atoms: _85  and  _88
REMARK   38  A    between atoms: _88  and  _89
REMARK   39  A    between atoms: _92  and  _94
REMARK   40  A    between atoms: _94  and  _95
REMARK   41  A    between atoms: _94  and  _97
REMARK   42  A    between atoms: _100  and  _102
REMARK   43  A    between atoms: _102  and  _103
REMARK   44  A    between atoms: _102  and  _105
REMARK   45  A    between atoms: _105  and  _106
REMARK   46  A    between atoms: _106  and  _107
REMARK   47  A    between atoms: _107  and  _108
REMARK   48  A    between atoms: _108  and  _109
REMARK   49  A    between atoms: _113  and  _115
REMARK   50  A    between atoms: _115  and  _116
REMARK   51  A    between atoms: _115  and  _118
REMARK   52  A    between atoms: _118  and  _119
REMARK   53  A    between atoms: _119  and  _120
REMARK   54  A    between atoms: _122  and  _124
REMARK   55  A    between atoms: _124  and  _125
REMARK   56  A    between atoms: _124  and  _127
REMARK   57  A    between atoms: _127  and  _128
REMARK   58  A    between atoms: _131  and  _133
REMARK   59  A    between atoms: _133  and  _134
REMARK   60  A    between atoms: _136  and  _138
REMARK   61  A    between atoms: _138  and  _139
REMARK   62  A    between atoms: _141  and  _143
REMARK   63  A    between atoms: _143  and  _144
REMARK   64  A    between atoms: _143  and  _146
REMARK   65  A    between atoms: _146  and  _147
REMARK   66  A    between atoms: _150  and  _152
REMARK   67  A    between atoms: _152  and  _153
REMARK   68  A    between atoms: _155  and  _157
REMARK   69  A    between atoms: _157  and  _158
REMARK   70  A    between atoms: _160  and  _162
REMARK   71  A    between atoms: _162  and  _163
REMARK   72  A    between atoms: _162  and  _165
REMARK   73  A    between atoms: _165  and  _166
REMARK   74  A    between atoms: _172  and  _174
REMARK   75  A    between atoms: _174  and  _175
REMARK   76  A    between atoms: _174  and  _177
REMARK   77  A    between atoms: _177  and  _178
REMARK   78  A    between atoms: _181  and  _183
REMARK   79  A    between atoms: _183  and  _184
REMARK   80  A    between atoms: _183  and  _186
REMARK   81  A    between atoms: _186  and  _187
REMARK   82  A    between atoms: _191  and  _192
REMARK   83  A    between atoms: _197  and  _199
REMARK   84  A    between atoms: _199  and  _200
REMARK   85  A    between atoms: _199  and  _202
REMARK   86  A    between atoms: _202  and  _203
REMARK   87  A    between atoms: _207  and  _208
REMARK   88  A    between atoms: _213  and  _215
REMARK   89  A    between atoms: _215  and  _216
REMARK   90  A    between atoms: _215  and  _218
REMARK   91  A    between atoms: _221  and  _223
REMARK   92  A    between atoms: _223  and  _224
REMARK   93  A    between atoms: _223  and  _226
REMARK   94  A    between atoms: _226  and  _227
REMARK   95  A    between atoms: _232  and  _234
REMARK   96  A    between atoms: _234  and  _235
REMARK   97  A    between atoms: _234  and  _237
REMARK   98  A    between atoms: _237  and  _238
REMARK   99  A    between atoms: _241  and  _243
REMARK  100  A    between atoms: _243  and  _244
REMARK  101  A    between atoms: _246  and  _248
REMARK  102  A    between atoms: _248  and  _249
REMARK  103  A    between atoms: _248  and  _251
REMARK  104  A    between atoms: _251  and  _252
REMARK  105  A    between atoms: _252  and  _253
REMARK  106  A    between atoms: _253  and  _254
REMARK  107  A    between atoms: _263  and  _265
REMARK  108  A    between atoms: _265  and  _266
REMARK  109  A    between atoms: _265  and  _268
REMARK  110  A    between atoms: _268  and  _269
REMARK  111  A    between atoms: _269  and  _270
REMARK  112  A    between atoms: _270  and  _271
REMARK  113  A    between atoms: _280  and  _282
REMARK  114  A    between atoms: _282  and  _283
REMARK  115  A    between atoms: _282  and  _285
REMARK  116  A    between atoms: _285  and  _286
REMARK  117  A    between atoms: _289  and  _291
REMARK  118  A    between atoms: _291  and  _292
REMARK  119  A    between atoms: _291  and  _294
REMARK  120  A    between atoms: _294  and  _295
REMARK  121  A    between atoms: _298  and  _300
REMARK  122  A    between atoms: _300  and  _301
REMARK  123  A    between atoms: _300  and  _303
REMARK  124  A    between atoms: _303  and  _304
REMARK  125  A    between atoms: _307  and  _309
REMARK  126  A    between atoms: _309  and  _310
REMARK  127  A    between atoms: _309  and  _312
REMARK  128  A    between atoms: _312  and  _313
REMARK  129  A    between atoms: _316  and  _318
REMARK  130  A    between atoms: _318  and  _319
REMARK  131  A    between atoms: _318  and  _321
REMARK  132  A    between atoms: _321  and  _322
REMARK  133  A    between atoms: _325  and  _327
REMARK  134  A    between atoms: _327  and  _328
REMARK  135  A    between atoms: _330  and  _332
REMARK  136  A    between atoms: _332  and  _333
REMARK  137  A    between atoms: _336  and  _338
REMARK  138  A    between atoms: _338  and  _339
REMARK  139  A    between atoms: _338  and  _341
REMARK  140  A    between atoms: _341  and  _342
REMARK  141  A    between atoms: _345  and  _347
REMARK  142  A    between atoms: _347  and  _348
REMARK  143  A    between atoms: _347  and  _350
REMARK  144  A    between atoms: _350  and  _351
REMARK  145  A    between atoms: _354  and  _356
REMARK  146  A    between atoms: _356  and  _357
REMARK  147  A    between atoms: _356  and  _359
REMARK  148  A    between atoms: _359  and  _360
REMARK  149  A    between atoms: _363  and  _365
REMARK  150  A    between atoms: _365  and  _366
REMARK  151  A    between atoms: _365  and  _368
REMARK  152  A    between atoms: _371  and  _373
REMARK  153  A    between atoms: _373  and  _374
REMARK  154  A    between atoms: _373  and  _376
REMARK  155  A    between atoms: _376  and  _377
REMARK  156  A    between atoms: _380  and  _382
REMARK  157  A    between atoms: _382  and  _383
REMARK  158  A    between atoms: _382  and  _385
REMARK  159  A    between atoms: _385  and  _386
REMARK  160  A    between atoms: _386  and  _387
REMARK  161  A    between atoms: _387  and  _388
REMARK  162  A    between atoms: _388  and  _389
REMARK  163  A    between atoms: _393  and  _395
REMARK  164  A    between atoms: _395  and  _396
REMARK  165  A    between atoms: _395  and  _398
REMARK  166  A    between atoms: _398  and  _399
REMARK  167  A    between atoms: _399  and  _400
REMARK  168  A    between atoms: _402  and  _404
REMARK  169  A    between atoms: _404  and  _405
REMARK  170  A    between atoms: _404  and  _407
REMARK  171  A    between atoms: _407  and  _408
REMARK  172  A    between atoms: _411  and  _413
REMARK  173  A    between atoms: _413  and  _414
REMARK  174  A    between atoms: _416  and  _418
REMARK  175  A    between atoms: _418  and  _419
REMARK  176  A    between atoms: _421  and  _423
REMARK  177  A    between atoms: _423  and  _424
REMARK  178  A    between atoms: _423  and  _426
REMARK  179  A    between atoms: _426  and  _427
REMARK  180  A    between atoms: _430  and  _432
REMARK  181  A    between atoms: _432  and  _433
REMARK  182  A    between atoms: _435  and  _437
REMARK  183  A    between atoms: _437  and  _438
REMARK  184  A    between atoms: _440  and  _442
REMARK  185  A    between atoms: _442  and  _443
REMARK  186  A    between atoms: _442  and  _445
REMARK  187  A    between atoms: _445  and  _446
REMARK  188  A    between atoms: _449  and  _451
REMARK  189  A    between atoms: _451  and  _452
REMARK  190  A    between atoms: _451  and  _454
REMARK  191  A    between atoms: _457  and  _459
REMARK  192  A    between atoms: _459  and  _460
REMARK  193  A    between atoms: _459  and  _462
REMARK  194  A    between atoms: _462  and  _463
REMARK  195  A    between atoms: _467  and  _468
REMARK  196  A    between atoms: _473  and  _475
REMARK  197  A    between atoms: _475  and  _476
REMARK  198  A    between atoms: _475  and  _478
REMARK  199  A    between atoms: _478  and  _479
REMARK  200  A    between atoms: _483  and  _484
REMARK  201  A    between atoms: _489  and  _491
REMARK  202  A    between atoms: _491  and  _492
REMARK  203  A    between atoms: _491  and  _494
REMARK  204  A    between atoms: _497  and  _499
REMARK  205  A    between atoms: _499  and  _500
REMARK  206  A    between atoms: _499  and  _502
REMARK  207  A    between atoms: _502  and  _503
REMARK  208  A    between atoms: _508  and  _510
REMARK  209  A    between atoms: _510  and  _511
REMARK  210  A    between atoms: _510  and  _513
REMARK  211  A    between atoms: _513  and  _514
REMARK  212  A    between atoms: _517  and  _519
REMARK  213  A    between atoms: _519  and  _520
REMARK  214  A    between atoms: _519  and  _522
REMARK  215  A    between atoms: _522  and  _523
REMARK  216  A    between atoms: _526  and  _528
REMARK  217  A    between atoms: _528  and  _529
REMARK  218  A    between atoms: _531  and  _533
REMARK  219  A    between atoms: _533  and  _534
REMARK  220  A    between atoms: _533  and  _536
REMARK  221  A    between atoms: _536  and  _537
REMARK  222  A    between atoms: _537  and  _538
REMARK  223  A    between atoms: _538  and  _539
REMARK  224  A    between atoms: _548  and  _550
REMARK  225  A    between atoms: _550  and  _551
REMARK  226  A    between atoms: _550  and  _553
REMARK  227  A    between atoms: _553  and  _554
REMARK                            x       y       z     vdW  Elec       q    Type
REMARK                         _______ _______ _______ _____ _____    ______ ____
ROOT
ATOM      1  O   HOH     1       5.385  22.399  -7.937  0.00  0.00    +0.000 OA
ENDROOT
TORSDOF 0
REMARK  Name = ../refined-set-2016/1hxw/1hxw_pocket.pdb
REMARK  227 active torsions:
REMARK  status: ('A' for Active; 'I' for Inactive)
REMARK    1  A    between atoms: _1  and  _3
REMARK    2  A    between atoms: _3  and  _4
REMARK    3  A    between atoms: _3  and  _6
REMARK    4  A    between atoms: _6  and  _7
REMARK    5  A    between atoms: _7  and  _8
REMARK    6  A    between atoms: _8  and  _9
REMARK    7  A    between atoms: _18  and  _20
REMARK    8  A    between atoms: _20  and  _21
REMARK    9  A    between atoms: _20  and  _23
REMARK   10  A    between atoms: _23  and  _24
REMARK   11  A    between atoms: _27  and  _29
REMARK   12  A    between atoms: _29  and  _30
REMARK   13  A    between atoms: _29  and  _32
REMARK   14  A    between atoms: _32  and  _33
REMARK   15  A    between atoms: _36  and  _38
REMARK   16  A    between atoms: _38  and  _39
REMARK   17  A    between atoms: _38  and  _41
REMARK   18  A    between atoms: _41  and  _42
REMARK   19  A    between atoms: _45  and  _47
REMARK   20  A    between atoms: _47  and  _48
REMARK   21  A    between atoms: _47  and  _50
REMARK   22  A    between atoms: _50  and  _51
REMARK   23  A    between atoms: _54  and  _56
REMARK   24  A    between atoms: _56  and  _57
REMARK   25  A    between atoms: _59  and  _61
REMARK   26  A    between atoms: _61  and  _62
REMARK   27  A    between atoms: _65  and  _67
REMARK   28  A    between atoms: _67  and  _68
REMARK   29  A    between atoms: _67  and  _70
REMARK   30  A    between atoms: _70  and  _71
REMARK   31  A    between atoms: _74  and  _76
REMARK   32  A    between atoms: _76  and  _77
REMARK   33  A    between atoms: _76  and  _79
REMARK   34  A    between atoms: _79  and  _80
REMARK   35  A    between atoms: _83  and  _85
REMARK   36  A    between atoms: _85  and  _86
REMARK   37  A    between atoms: _85  and  _88
REMARK   38  A    between atoms: _88  and  _89
REMARK   39  A    between atoms: _92  and  _94
REMARK   40  A    between atoms: _94  and  _95
REMARK   41  A    between atoms: _94  and  _97
REMARK   42  A    between atoms: _100  and  _102
REMARK   43  A    between atoms: _102  and  _103
REMARK   44  A    between atoms: _102  and  _105
REMARK   45  A    between atoms: _105  and  _106
REMARK   46  A    between atoms: _106  and  _107
REMARK   47  A    between atoms: _107  and  _108
REMARK   48  A    between atoms: _108  and  _109
REMARK   49  A    between atoms: _113  and  _115
REMARK   50  A    between atoms: _115  and  _116
REMARK   51  A    between atoms: _115  and  _118
REMARK   52  A    between atoms: _118  and  _119
REMARK   53  A    between atoms: _119  and  _120
REMARK   54  A    between atoms: _122  and  _124
REMARK   55  A    between atoms: _124  and  _125
REMARK   56  A    between atoms: _124  and  _127
REMARK   57  A    between atoms: _127  and  _128
REMARK   58  A    between atoms: _131  and  _133
REMARK   59  A    between atoms: _133  and  _134
REMARK   60  A    between atoms: _136  and  _138
REMARK   61  A    between atoms: _138  and  _139
REMARK   62  A    between atoms: _141  and  _143
REMARK   63  A    between atoms: _143  and  _144
REMARK   64  A    between atoms: _143  and  _146
REMARK   65  A    between atoms: _146  and  _147
REMARK   66  A    between atoms: _150  and  _152
REMARK   67  A    between atoms: _152  and  _153
REMARK   68  A    between atoms: _155  and  _157
REMARK   69  A    between atoms: _157  and  _158
REMARK   70  A    between atoms: _160  and  _162
REMARK   71  A    between atoms: _162  and  _163
REMARK   72  A    between atoms: _162  and  _165
REMARK   73  A    between atoms: _165  and  _166
REMARK   74  A    between atoms: _172  and  _174
REMARK   75  A    between atoms: _174  and  _175
REMARK   76  A    between atoms: _174  and  _177
REMARK   77  A    between atoms: _177  and  _178
REMARK   78  A    between atoms: _181  and  _183
REMARK   79  A    between atoms: _183  and  _184
REMARK   80  A    between atoms: _183  and  _186
REMARK   81  A    between atoms: _186  and  _187
REMARK   82  A    between atoms: _191  and  _192
REMARK   83  A    between atoms: _197  and  _199
REMARK   84  A    between atoms: _199  and  _200
REMARK   85  A    between atoms: _199  and  _202
REMARK   86  A    between atoms: _202  and  _203
REMARK   87  A    between atoms: _207  and  _208
REMARK   88  A    between atoms: _213  and  _215
REMARK   89  A    between atoms: _215  and  _216
REMARK   90  A    between atoms: _215  and  _218
REMARK   91  A    between atoms: _221  and  _223
REMARK   92  A    between atoms: _223  and  _224
REMARK   93  A    between atoms: _223  and  _226
REMARK   94  A    between atoms: _226  and  _227
REMARK   95  A    between atoms: _232  and  _234
REMARK   96  A    between atoms: _234  and  _235
REMARK   97  A    between atoms: _234  and  _237
REMARK   98  A    between atoms: _237  and  _238
REMARK   99  A    between atoms: _241  and  _243
REMARK  100  A    between atoms: _243  and  _244
REMARK  101  A    between atoms: _246  and  _248
REMARK  102  A    between atoms: _248  and  _249
REMARK  103  A    between atoms: _248  and  _251
REMARK  104  A    between atoms: _251  and  _252
REMARK  105  A    between atoms: _252  and  _253
REMARK  106  A    between atoms: _253  and  _254
REMARK  107  A    between atoms: _263  and  _265
REMARK  108  A    between atoms: _265  and  _266
REMARK  109  A    between atoms: _265  and  _268
REMARK  110  A    between atoms: _268  and  _269
REMARK  111  A    between atoms: _269  and  _270
REMARK  112  A    between atoms: _270  and  _271
REMARK  113  A    between atoms: _280  and  _282
REMARK  114  A    between atoms: _282  and  _283
REMARK  115  A    between atoms: _282  and  _285
REMARK  116  A    between atoms: _285  and  _286
REMARK  117  A    between atoms: _289  and  _291
REMARK  118  A    between atoms: _291  and  _292
REMARK  119  A    between atoms: _291  and  _294
REMARK  120  A    between atoms: _294  and  _295
REMARK  121  A    between atoms: _298  and  _300
REMARK  122  A    between atoms: _300  and  _301
REMARK  123  A    between atoms: _300  and  _303
REMARK  124  A    between atoms: _303  and  _304
REMARK  125  A    between atoms: _307  and  _309
REMARK  126  A    between atoms: _309  and  _310
REMARK  127  A    between atoms: _309  and  _312
REMARK  128  A    between atoms: _312  and  _313
REMARK  129  A    between atoms: _316  and  _318
REMARK  130  A    between atoms: _318  and  _319
REMARK  131  A    between atoms: _318  and  _321
REMARK  132  A    between atoms: _321  and  _322
REMARK  133  A    between atoms: _325  and  _327
REMARK  134  A    between atoms: _327  and  _328
REMARK  135  A    between atoms: _330  and  _332
REMARK  136  A    between atoms: _332  and  _333
REMARK  137  A    between atoms: _336  and  _338
REMARK  138  A    between atoms: _338  and  _339
REMARK  139  A    between atoms: _338  and  _341
REMARK  140  A    between atoms: _341  and  _342
REMARK  141  A    between atoms: _345  and  _347
REMARK  142  A    between atoms: _347  and  _348
REMARK  143  A    between atoms: _347  and  _350
REMARK  144  A    between atoms: _350  and  _351
REMARK  145  A    between atoms: _354  and  _356
REMARK  146  A    between atoms: _356  and  _357
REMARK  147  A    between atoms: _356  and  _359
REMARK  148  A    between atoms: _359  and  _360
REMARK  149  A    between atoms: _363  and  _365
REMARK  150  A    between atoms: _365  and  _366
REMARK  151  A    between atoms: _365  and  _368
REMARK  152  A    between atoms: _371  and  _373
REMARK  153  A    between atoms: _373  and  _374
REMARK  154  A    between atoms: _373  and  _376
REMARK  155  A    between atoms: _376  and  _377
REMARK  156  A    between atoms: _380  and  _382
REMARK  157  A    between atoms: _382  and  _383
REMARK  158  A    between atoms: _382  and  _385
REMARK  159  A    between atoms: _385  and  _386
REMARK  160  A    between atoms: _386  and  _387
REMARK  161  A    between atoms: _387  and  _388
REMARK  162  A    between atoms: _388  and  _389
REMARK  163  A    between atoms: _393  and  _395
REMARK  164  A    between atoms: _395  and  _396
REMARK  165  A    between atoms: _395  and  _398
REMARK  166  A    between atoms: _398  and  _399
REMARK  167  A    between atoms: _399  and  _400
REMARK  168  A    between atoms: _402  and  _404
REMARK  169  A    between atoms: _404  and  _405
REMARK  170  A    between atoms: _404  and  _407
REMARK  171  A    between atoms: _407  and  _408
REMARK  172  A    between atoms: _411  and  _413
REMARK  173  A    between atoms: _413  and  _414
REMARK  174  A    between atoms: _416  and  _418
REMARK  175  A    between atoms: _418  and  _419
REMARK  176  A    between atoms: _421  and  _423
REMARK  177  A    between atoms: _423  and  _424
REMARK  178  A    between atoms: _423  and  _426
REMARK  179  A    between atoms: _426  and  _427
REMARK  180  A    between atoms: _430  and  _432
REMARK  181  A    between atoms: _432  and  _433
REMARK  182  A    between atoms: _435  and  _437
REMARK  183  A    between atoms: _437  and  _438
REMARK  184  A    between atoms: _440  and  _442
REMARK  185  A    between atoms: _442  and  _443
REMARK  186  A    between atoms: _442  and  _445
REMARK  187  A    between atoms: _445  and  _446
REMARK  188  A    between atoms: _449  and  _451
REMARK  189  A    between atoms: _451  and  _452
REMARK  190  A    between atoms: _451  and  _454
REMARK  191  A    between atoms: _457  and  _459
REMARK  192  A    between atoms: _459  and  _460
REMARK  193  A    between atoms: _459  and  _462
REMARK  194  A    between atoms: _462  and  _463
REMARK  195  A    between atoms: _467  and  _468
REMARK  196  A    between atoms: _473  and  _475
REMARK  197  A    between atoms: _475  and  _476
REMARK  198  A    between atoms: _475  and  _478
REMARK  199  A    between atoms: _478  and  _479
REMARK  200  A    between atoms: _483  and  _484
REMARK  201  A    between atoms: _489  and  _491
REMARK  202  A    between atoms: _491  and  _492
REMARK  203  A    between atoms: _491  and  _494
REMARK  204  A    between atoms: _497  and  _499
REMARK  205  A    between atoms: _499  and  _500
REMARK  206  A    between atoms: _499  and  _502
REMARK  207  A    between atoms: _502  and  _503
REMARK  208  A    between atoms: _508  and  _510
REMARK  209  A    between atoms: _510  and  _511
REMARK  210  A    between atoms: _510  and  _513
REMARK  211  A    between atoms: _513  and  _514
REMARK  212  A    between atoms: _517  and  _519
REMARK  213  A    between atoms: _519  and  _520
REMARK  214  A    between atoms: _519  and  _522
REMARK  215  A    between atoms: _522  and  _523
REMARK  216  A    between atoms: _526  and  _528
REMARK  217  A    between atoms: _528  and  _529
REMARK  218  A    between atoms: _531  and  _533
REMARK  219  A    between atoms: _533  and  _534
REMARK  220  A    between atoms: _533  and  _536
REMARK  221  A    between atoms: _536  and  _537
REMARK  222  A    between atoms: _537  and  _538
REMARK  223  A    between atoms: _538  and  _539
REMARK  224  A    between atoms: _548  and  _550
REMARK  225  A    between atoms: _550  and  _551
REMARK  226  A    between atoms: _550  and  _553
REMARK  227  A    between atoms: _553  and  _554
REMARK                            x       y       z     vdW  Elec       q    Type
REMARK                         _______ _______ _______ _____ _____    ______ ____
ROOT
ATOM      1  O   HOH     1      25.349  18.818   0.528  0.00  0.00    +0.000 OA
ENDROOT
TORSDOF 0
REMARK  Name = ../refined-set-2016/1hxw/1hxw_pocket.pdb
REMARK  227 active torsions:
REMARK  status: ('A' for Active; 'I' for Inactive)
REMARK    1  A    between atoms: _1  and  _3
REMARK    2  A    between atoms: _3  and  _4
REMARK    3  A    between atoms: _3  and  _6
REMARK    4  A    between atoms: _6  and  _7
REMARK    5  A    between atoms: _7  and  _8
REMARK    6  A    between atoms: _8  and  _9
REMARK    7  A    between atoms: _18  and  _20
REMARK    8  A    between atoms: _20  and  _21
REMARK    9  A    between atoms: _20  and  _23
REMARK   10  A    between atoms: _23  and  _24
REMARK   11  A    between atoms: _27  and  _29
REMARK   12  A    between atoms: _29  and  _30
REMARK   13  A    between atoms: _29  and  _32
REMARK   14  A    between atoms: _32  and  _33
REMARK   15  A    between atoms: _36  and  _38
REMARK   16  A    between atoms: _38  and  _39
REMARK   17  A    between atoms: _38  and  _41
REMARK   18  A    between atoms: _41  and  _42
REMARK   19  A    between atoms: _45  and  _47
REMARK   20  A    between atoms: _47  and  _48
REMARK   21  A    between atoms: _47  and  _50
REMARK   22  A    between atoms: _50  and  _51
REMARK   23  A    between atoms: _54  and  _56
REMARK   24  A    between atoms: _56  and  _57
REMARK   25  A    between atoms: _59  and  _61
REMARK   26  A    between atoms: _61  and  _62
REMARK   27  A    between atoms: _65  and  _67
REMARK   28  A    between atoms: _67  and  _68
REMARK   29  A    between atoms: _67  and  _70
REMARK   30  A    between atoms: _70  and  _71
REMARK   31  A    between atoms: _74  and  _76
REMARK   32  A    between atoms: _76  and  _77
REMARK   33  A    between atoms: _76  and  _79
REMARK   34  A    between atoms: _79  and  _80
REMARK   35  A    between atoms: _83  and  _85
REMARK   36  A    between atoms: _85  and  _86
REMARK   37  A    between atoms: _85  and  _88
REMARK   38  A    between atoms: _88  and  _89
REMARK   39  A    between atoms: _92  and  _94
REMARK   40  A    between atoms: _94  and  _95
REMARK   41  A    between atoms: _94  and  _97
REMARK   42  A    between atoms: _100  and  _102
REMARK   43  A    between atoms: _102  and  _103
REMARK   44  A    between atoms: _102  and  _105
REMARK   45  A    between atoms: _105  and  _106
REMARK   46  A    between atoms: _106  and  _107
REMARK   47  A    between atoms: _107  and  _108
REMARK   48  A    between atoms: _108  and  _109
REMARK   49  A    between atoms: _113  and  _115
REMARK   50  A    between atoms: _115  and  _116
REMARK   51  A    between atoms: _115  and  _118
REMARK   52  A    between atoms: _118  and  _119
REMARK   53  A    between atoms: _119  and  _120
REMARK   54  A    between atoms: _122  and  _124
REMARK   55  A    between atoms: _124  and  _125
REMARK   56  A    between atoms: _124  and  _127
REMARK   57  A    between atoms: _127  and  _128
REMARK   58  A    between atoms: _131  and  _133
REMARK   59  A    between atoms: _133  and  _134
REMARK   60  A    between atoms: _136  and  _138
REMARK   61  A    between atoms: _138  and  _139
REMARK   62  A    between atoms: _141  and  _143
REMARK   63  A    between atoms: _143  and  _144
REMARK   64  A    between atoms: _143  and  _146
REMARK   65  A    between atoms: _146  and  _147
REMARK   66  A    between atoms: _150  and  _152
REMARK   67  A    between atoms: _152  and  _153
REMARK   68  A    between atoms: _155  and  _157
REMARK   69  A    between atoms: _157  and  _158
REMARK   70  A    between atoms: _160  and  _162
REMARK   71  A    between atoms: _162  and  _163
REMARK   72  A    between atoms: _162  and  _165
REMARK   73  A    between atoms: _165  and  _166
REMARK   74  A    between atoms: _172  and  _174
REMARK   75  A    between atoms: _174  and  _175
REMARK   76  A    between atoms: _174  and  _177
REMARK   77  A    between atoms: _177  and  _178
REMARK   78  A    between atoms: _181  and  _183
REMARK   79  A    between atoms: _183  and  _184
REMARK   80  A    between atoms: _183  and  _186
REMARK   81  A    between atoms: _186  and  _187
REMARK   82  A    between atoms: _191  and  _192
REMARK   83  A    between atoms: _197  and  _199
REMARK   84  A    between atoms: _199  and  _200
REMARK   85  A    between atoms: _199  and  _202
REMARK   86  A    between atoms: _202  and  _203
REMARK   87  A    between atoms: _207  and  _208
REMARK   88  A    between atoms: _213  and  _215
REMARK   89  A    between atoms: _215  and  _216
REMARK   90  A    between atoms: _215  and  _218
REMARK   91  A    between atoms: _221  and  _223
REMARK   92  A    between atoms: _223  and  _224
REMARK   93  A    between atoms: _223  and  _226
REMARK   94  A    between atoms: _226  and  _227
REMARK   95  A    between atoms: _232  and  _234
REMARK   96  A    between atoms: _234  and  _235
REMARK   97  A    between atoms: _234  and  _237
REMARK   98  A    between atoms: _237  and  _238
REMARK   99  A    between atoms: _241  and  _243
REMARK  100  A    between atoms: _243  and  _244
REMARK  101  A    between atoms: _246  and  _248
REMARK  102  A    between atoms: _248  and  _249
REMARK  103  A    between atoms: _248  and  _251
REMARK  104  A    between atoms: _251  and  _252
REMARK  105  A    between atoms: _252  and  _253
REMARK  106  A    between atoms: _253  and  _254
REMARK  107  A    between atoms: _263  and  _265
REMARK  108  A    between atoms: _265  and  _266
REMARK  109  A    between atoms: _265  and  _268
REMARK  110  A    between atoms: _268  and  _269
REMARK  111  A    between atoms: _269  and  _270
REMARK  112  A    between atoms: _270  and  _271
REMARK  113  A    between atoms: _280  and  _282
REMARK  114  A    between atoms: _282  and  _283
REMARK  115  A    between atoms: _282  and  _285
REMARK  116  A    between atoms: _285  and  _286
REMARK  117  A    between atoms: _289  and  _291
REMARK  118  A    between atoms: _291  and  _292
REMARK  119  A    between atoms: _291  and  _294
REMARK  120  A    between atoms: _294  and  _295
REMARK  121  A    between atoms: _298  and  _300
REMARK  122  A    between atoms: _300  and  _301
REMARK  123  A    between atoms: _300  and  _303
REMARK  124  A    between atoms: _303  and  _304
REMARK  125  A    between atoms: _307  and  _309
REMARK  126  A    between atoms: _309  and  _310
REMARK  127  A    between atoms: _309  and  _312
REMARK  128  A    between atoms: _312  and  _313
REMARK  129  A    between atoms: _316  and  _318
REMARK  130  A    between atoms: _318  and  _319
REMARK  131  A    between atoms: _318  and  _321
REMARK  132  A    between atoms: _321  and  _322
REMARK  133  A    between atoms: _325  and  _327
REMARK  134  A    between atoms: _327  and  _328
REMARK  135  A    between atoms: _330  and  _332
REMARK  136  A    between atoms: _332  and  _333
REMARK  137  A    between atoms: _336  and  _338
REMARK  138  A    between atoms: _338  and  _339
REMARK  139  A    between atoms: _338  and  _341
REMARK  140  A    between atoms: _341  and  _342
REMARK  141  A    between atoms: _345  and  _347
REMARK  142  A    between atoms: _347  and  _348
REMARK  143  A    between atoms: _347  and  _350
REMARK  144  A    between atoms: _350  and  _351
REMARK  145  A    between atoms: _354  and  _356
REMARK  146  A    between atoms: _356  and  _357
REMARK  147  A    between atoms: _356  and  _359
REMARK  148  A    between atoms: _359  and  _360
REMARK  149  A    between atoms: _363  and  _365
REMARK  150  A    between atoms: _365  and  _366
REMARK  151  A    between atoms: _365  and  _368
REMARK  152  A    between atoms: _371  and  _373
REMARK  153  A    between atoms: _373  and  _374
REMARK  154  A    between atoms: _373  and  _376
REMARK  155  A    between atoms: _376  and  _377
REMARK  156  A    between atoms: _380  and  _382
REMARK  157  A    between atoms: _382  and  _383
REMARK  158  A    between atoms: _382  and  _385
REMARK  159  A    between atoms: _385  and  _386
REMARK  160  A    between atoms: _386  and  _387
REMARK  161  A    between atoms: _387  and  _388
REMARK  162  A    between atoms: _388  and  _389
REMARK  163  A    between atoms: _393  and  _395
REMARK  164  A    between atoms: _395  and  _396
REMARK  165  A    between atoms: _395  and  _398
REMARK  166  A    between atoms: _398  and  _399
REMARK  167  A    between atoms: _399  and  _400
REMARK  168  A    between atoms: _402  and  _404
REMARK  169  A    between atoms: _404  and  _405
REMARK  170  A    between atoms: _404  and  _407
REMARK  171  A    between atoms: _407  and  _408
REMARK  172  A    between atoms: _411  and  _413
REMARK  173  A    between atoms: _413  and  _414
REMARK  174  A    between atoms: _416  and  _418
REMARK  175  A    between atoms: _418  and  _419
REMARK  176  A    between atoms: _421  and  _423
REMARK  177  A    between atoms: _423  and  _424
REMARK  178  A    between atoms: _423  and  _426
REMARK  179  A    between atoms: _426  and  _427
REMARK  180  A    between atoms: _430  and  _432
REMARK  181  A    between atoms: _432  and  _433
REMARK  182  A    between atoms: _435  and  _437
REMARK  183  A    between atoms: _437  and  _438
REMARK  184  A    between atoms: _440  and  _442
REMARK  185  A    between atoms: _442  and  _443
REMARK  186  A    between atoms: _442  and  _445
REMARK  187  A    between atoms: _445  and  _446
REMARK  188  A    between atoms: _449  and  _451
REMARK  189  A    between atoms: _451  and  _452
REMARK  190  A    between atoms: _451  and  _454
REMARK  191  A    between atoms: _457  and  _459
REMARK  192  A    between atoms: _459  and  _460
REMARK  193  A    between atoms: _459  and  _462
REMARK  194  A    between atoms: _462  and  _463
REMARK  195  A    between atoms: _467  and  _468
REMARK  196  A    between atoms: _473  and  _475
REMARK  197  A    between atoms: _475  and  _476
REMARK  198  A    between atoms: _475  and  _478
REMARK  199  A    between atoms: _478  and  _479
REMARK  200  A    between atoms: _483  and  _484
REMARK  201  A    between atoms: _489  and  _491
REMARK  202  A    between atoms: _491  and  _492
REMARK  203  A    between atoms: _491  and  _494
REMARK  204  A    between atoms: _497  and  _499
REMARK  205  A    between atoms: _499  and  _500
REMARK  206  A    between atoms: _499  and  _502
REMARK  207  A    between atoms: _502  and  _503
REMARK  208  A    between atoms: _508  and  _510
REMARK  209  A    between atoms: _510  and  _511
REMARK  210  A    between atoms: _510  and  _513
REMARK  211  A    between atoms: _513  and  _514
REMARK  212  A    between atoms: _517  and  _519
REMARK  213  A    between atoms: _519  and  _520
REMARK  214  A    between atoms: _519  and  _522
REMARK  215  A    between atoms: _522  and  _523
REMARK  216  A    between atoms: _526  and  _528
REMARK  217  A    between atoms: _528  and  _529
REMARK  218  A    between atoms: _531  and  _533
REMARK  219  A    between atoms: _533  and  _534
REMARK  220  A    between atoms: _533  and  _536
REMARK  221  A    between atoms: _536  and  _537
REMARK  222  A    between atoms: _537  and  _538
REMARK  223  A    between atoms: _538  and  _539
REMARK  224  A    between atoms: _548  and  _550
REMARK  225  A    between atoms: _550  and  _551
REMARK  226  A    between atoms: _550  and  _553
REMARK  227  A    between atoms: _553  and  _554
REMARK                            x       y       z     vdW  Elec       q    Type
REMARK                         _______ _______ _______ _____ _____    ______ ____
ROOT
ATOM      1  O   HOH     1       1.905  29.224   3.423  0.00  0.00    +0.000 OA
ENDROOT
TORSDOF 0
REMARK  Name = ../refined-set-2016/1hxw/1hxw_pocket.pdb
REMARK  227 active torsions:
REMARK  status: ('A' for Active; 'I' for Inactive)
REMARK    1  A    between atoms: _1  and  _3
REMARK    2  A    between atoms: _3  and  _4
REMARK    3  A    between atoms: _3  and  _6
REMARK    4  A    between atoms: _6  and  _7
REMARK    5  A    between atoms: _7  and  _8
REMARK    6  A    between atoms: _8  and  _9
REMARK    7  A    between atoms: _18  and  _20
REMARK    8  A    between atoms: _20  and  _21
REMARK    9  A    between atoms: _20  and  _23
REMARK   10  A    between atoms: _23  and  _24
REMARK   11  A    between atoms: _27  and  _29
REMARK   12  A    between atoms: _29  and  _30
REMARK   13  A    between atoms: _29  and  _32
REMARK   14  A    between atoms: _32  and  _33
REMARK   15  A    between atoms: _36  and  _38
REMARK   16  A    between atoms: _38  and  _39
REMARK   17  A    between atoms: _38  and  _41
REMARK   18  A    between atoms: _41  and  _42
REMARK   19  A    between atoms: _45  and  _47
REMARK   20  A    between atoms: _47  and  _48
REMARK   21  A    between atoms: _47  and  _50
REMARK   22  A    between atoms: _50  and  _51
REMARK   23  A    between atoms: _54  and  _56
REMARK   24  A    between atoms: _56  and  _57
REMARK   25  A    between atoms: _59  and  _61
REMARK   26  A    between atoms: _61  and  _62
REMARK   27  A    between atoms: _65  and  _67
REMARK   28  A    between atoms: _67  and  _68
REMARK   29  A    between atoms: _67  and  _70
REMARK   30  A    between atoms: _70  and  _71
REMARK   31  A    between atoms: _74  and  _76
REMARK   32  A    between atoms: _76  and  _77
REMARK   33  A    between atoms: _76  and  _79
REMARK   34  A    between atoms: _79  and  _80
REMARK   35  A    between atoms: _83  and  _85
REMARK   36  A    between atoms: _85  and  _86
REMARK   37  A    between atoms: _85  and  _88
REMARK   38  A    between atoms: _88  and  _89
REMARK   39  A    between atoms: _92  and  _94
REMARK   40  A    between atoms: _94  and  _95
REMARK   41  A    between atoms: _94  and  _97
REMARK   42  A    between atoms: _100  and  _102
REMARK   43  A    between atoms: _102  and  _103
REMARK   44  A    between atoms: _102  and  _105
REMARK   45  A    between atoms: _105  and  _106
REMARK   46  A    between atoms: _106  and  _107
REMARK   47  A    between atoms: _107  and  _108
REMARK   48  A    between atoms: _108  and  _109
REMARK   49  A    between atoms: _113  and  _115
REMARK   50  A    between atoms: _115  and  _116
REMARK   51  A    between atoms: _115  and  _118
REMARK   52  A    between atoms: _118  and  _119
REMARK   53  A    between atoms: _119  and  _120
REMARK   54  A    between atoms: _122  and  _124
REMARK   55  A    between atoms: _124  and  _125
REMARK   56  A    between atoms: _124  and  _127
REMARK   57  A    between atoms: _127  and  _128
REMARK   58  A    between atoms: _131  and  _133
REMARK   59  A    between atoms: _133  and  _134
REMARK   60  A    between atoms: _136  and  _138
REMARK   61  A    between atoms: _138  and  _139
REMARK   62  A    between atoms: _141  and  _143
REMARK   63  A    between atoms: _143  and  _144
REMARK   64  A    between atoms: _143  and  _146
REMARK   65  A    between atoms: _146  and  _147
REMARK   66  A    between atoms: _150  and  _152
REMARK   67  A    between atoms: _152  and  _153
REMARK   68  A    between atoms: _155  and  _157
REMARK   69  A    between atoms: _157  and  _158
REMARK   70  A    between atoms: _160  and  _162
REMARK   71  A    between atoms: _162  and  _163
REMARK   72  A    between atoms: _162  and  _165
REMARK   73  A    between atoms: _165  and  _166
REMARK   74  A    between atoms: _172  and  _174
REMARK   75  A    between atoms: _174  and  _175
REMARK   76  A    between atoms: _174  and  _177
REMARK   77  A    between atoms: _177  and  _178
REMARK   78  A    between atoms: _181  and  _183
REMARK   79  A    between atoms: _183  and  _184
REMARK   80  A    between atoms: _183  and  _186
REMARK   81  A    between atoms: _186  and  _187
REMARK   82  A    between atoms: _191  and  _192
REMARK   83  A    between atoms: _197  and  _199
REMARK   84  A    between atoms: _199  and  _200
REMARK   85  A    between atoms: _199  and  _202
REMARK   86  A    between atoms: _202  and  _203
REMARK   87  A    between atoms: _207  and  _208
REMARK   88  A    between atoms: _213  and  _215
REMARK   89  A    between atoms: _215  and  _216
REMARK   90  A    between atoms: _215  and  _218
REMARK   91  A    between atoms: _221  and  _223
REMARK   92  A    between atoms: _223  and  _224
REMARK   93  A    between atoms: _223  and  _226
REMARK   94  A    between atoms: _226  and  _227
REMARK   95  A    between atoms: _232  and  _234
REMARK   96  A    between atoms: _234  and  _235
REMARK   97  A    between atoms: _234  and  _237
REMARK   98  A    between atoms: _237  and  _238
REMARK   99  A    between atoms: _241  and  _243
REMARK  100  A    between atoms: _243  and  _244
REMARK  101  A    between atoms: _246  and  _248
REMARK  102  A    between atoms: _248  and  _249
REMARK  103  A    between atoms: _248  and  _251
REMARK  104  A    between atoms: _251  and  _252
REMARK  105  A    between atoms: _252  and  _253
REMARK  106  A    between atoms: _253  and  _254
REMARK  107  A    between atoms: _263  and  _265
REMARK  108  A    between atoms: _265  and  _266
REMARK  109  A    between atoms: _265  and  _268
REMARK  110  A    between atoms: _268  and  _269
REMARK  111  A    between atoms: _269  and  _270
REMARK  112  A    between atoms: _270  and  _271
REMARK  113  A    between atoms: _280  and  _282
REMARK  114  A    between atoms: _282  and  _283
REMARK  115  A    between atoms: _282  and  _285
REMARK  116  A    between atoms: _285  and  _286
REMARK  117  A    between atoms: _289  and  _291
REMARK  118  A    between atoms: _291  and  _292
REMARK  119  A    between atoms: _291  and  _294
REMARK  120  A    between atoms: _294  and  _295
REMARK  121  A    between atoms: _298  and  _300
REMARK  122  A    between atoms: _300  and  _301
REMARK  123  A    between atoms: _300  and  _303
REMARK  124  A    between atoms: _303  and  _304
REMARK  125  A    between atoms: _307  and  _309
REMARK  126  A    between atoms: _309  and  _310
REMARK  127  A    between atoms: _309  and  _312
REMARK  128  A    between atoms: _312  and  _313
REMARK  129  A    between atoms: _316  and  _318
REMARK  130  A    between atoms: _318  and  _319
REMARK  131  A    between atoms: _318  and  _321
REMARK  132  A    between atoms: _321  and  _322
REMARK  133  A    between atoms: _325  and  _327
REMARK  134  A    between atoms: _327  and  _328
REMARK  135  A    between atoms: _330  and  _332
REMARK  136  A    between atoms: _332  and  _333
REMARK  137  A    between atoms: _336  and  _338
REMARK  138  A    between atoms: _338  and  _339
REMARK  139  A    between atoms: _338  and  _341
REMARK  140  A    between atoms: _341  and  _342
REMARK  141  A    between atoms: _345  and  _347
REMARK  142  A    between atoms: _347  and  _348
REMARK  143  A    between atoms: _347  and  _350
REMARK  144  A    between atoms: _350  and  _351
REMARK  145  A    between atoms: _354  and  _356
REMARK  146  A    between atoms: _356  and  _357
REMARK  147  A    between atoms: _356  and  _359
REMARK  148  A    between atoms: _359  and  _360
REMARK  149  A    between atoms: _363  and  _365
REMARK  150  A    between atoms: _365  and  _366
REMARK  151  A    between atoms: _365  and  _368
REMARK  152  A    between atoms: _371  and  _373
REMARK  153  A    between atoms: _373  and  _374
REMARK  154  A    between atoms: _373  and  _376
REMARK  155  A    between atoms: _376  and  _377
REMARK  156  A    between atoms: _380  and  _382
REMARK  157  A    between atoms: _382  and  _383
REMARK  158  A    between atoms: _382  and  _385
REMARK  159  A    between atoms: _385  and  _386
REMARK  160  A    between atoms: _386  and  _387
REMARK  161  A    between atoms: _387  and  _388
REMARK  162  A    between atoms: _388  and  _389
REMARK  163  A    between atoms: _393  and  _395
REMARK  164  A    between atoms: _395  and  _396
REMARK  165  A    between atoms: _395  and  _398
REMARK  166  A    between atoms: _398  and  _399
REMARK  167  A    between atoms: _399  and  _400
REMARK  168  A    between atoms: _402  and  _404
REMARK  169  A    between atoms: _404  and  _405
REMARK  170  A    between atoms: _404  and  _407
REMARK  171  A    between atoms: _407  and  _408
REMARK  172  A    between atoms: _411  and  _413
REMARK  173  A    between atoms: _413  and  _414
REMARK  174  A    between atoms: _416  and  _418
REMARK  175  A    between atoms: _418  and  _419
REMARK  176  A    between atoms: _421  and  _423
REMARK  177  A    between atoms: _423  and  _424
REMARK  178  A    between atoms: _423  and  _426
REMARK  179  A    between atoms: _426  and  _427
REMARK  180  A    between atoms: _430  and  _432
REMARK  181  A    between atoms: _432  and  _433
REMARK  182  A    between atoms: _435  and  _437
REMARK  183  A    between atoms: _437  and  _438
REMARK  184  A    between atoms: _440  and  _442
REMARK  185  A    between atoms: _442  and  _443
REMARK  186  A    between atoms: _442  and  _445
REMARK  187  A    between atoms: _445  and  _446
REMARK  188  A    between atoms: _449  and  _451
REMARK  189  A    between atoms: _451  and  _452
REMARK  190  A    between atoms: _451  and  _454
REMARK  191  A    between atoms: _457  and  _459
REMARK  192  A    between atoms: _459  and  _460
REMARK  193  A    between atoms: _459  and  _462
REMARK  194  A    between atoms: _462  and  _463
REMARK  195  A    between atoms: _467  and  _468
REMARK  196  A    between atoms: _473  and  _475
REMARK  197  A    between atoms: _475  and  _476
REMARK  198  A    between atoms: _475  and  _478
REMARK  199  A    between atoms: _478  and  _479
REMARK  200  A    between atoms: _483  and  _484
REMARK  201  A    between atoms: _489  and  _491
REMARK  202  A    between atoms: _491  and  _492
REMARK  203  A    between atoms: _491  and  _494
REMARK  204  A    between atoms: _497  and  _499
REMARK  205  A    between atoms: _499  and  _500
REMARK  206  A    between atoms: _499  and  _502
REMARK  207  A    between atoms: _502  and  _503
REMARK  208  A    between atoms: _508  and  _510
REMARK  209  A    between atoms: _510  and  _511
REMARK  210  A    between atoms: _510  and  _513
REMARK  211  A    between atoms: _513  and  _514
REMARK  212  A    between atoms: _517  and  _519
REMARK  213  A    between atoms: _519  and  _520
REMARK  214  A    between atoms: _519  and  _522
REMARK  215  A    between atoms: _522  and  _523
REMARK  216  A    between atoms: _526  and  _528
REMARK  217  A    between atoms: _528  and  _529
REMARK  218  A    between atoms: _531  and  _533
REMARK  219  A    between atoms: _533  and  _534
REMARK  220  A    between atoms: _533  and  _536
REMARK  221  A    between atoms: _536  and  _537
REMARK  222  A    between atoms: _537  and  _538
REMARK  223  A    between atoms: _538  and  _539
REMARK  224  A    between atoms: _548  and  _550
REMARK  225  A    between atoms: _550  and  _551
REMARK  226  A    between atoms: _550  and  _553
REMARK  227  A    between atoms: _553  and  _554
REMARK                            x       y       z     vdW  Elec       q    Type
REMARK                         _______ _______ _______ _____ _____    ______ ____
ROOT
ATOM      1  O   HOH     1      16.308  16.089  10.706  0.00  0.00    +0.000 OA
ENDROOT
TORSDOF 0
REMARK  Name = ../refined-set-2016/1hxw/1hxw_pocket.pdb
REMARK  227 active torsions:
REMARK  status: ('A' for Active; 'I' for Inactive)
REMARK    1  A    between atoms: _1  and  _3
REMARK    2  A    between atoms: _3  and  _4
REMARK    3  A    between atoms: _3  and  _6
REMARK    4  A    between atoms: _6  and  _7
REMARK    5  A    between atoms: _7  and  _8
REMARK    6  A    between atoms: _8  and  _9
REMARK    7  A    between atoms: _18  and  _20
REMARK    8  A    between atoms: _20  and  _21
REMARK    9  A    between atoms: _20  and  _23
REMARK   10  A    between atoms: _23  and  _24
REMARK   11  A    between atoms: _27  and  _29
REMARK   12  A    between atoms: _29  and  _30
REMARK   13  A    between atoms: _29  and  _32
REMARK   14  A    between atoms: _32  and  _33
REMARK   15  A    between atoms: _36  and  _38
REMARK   16  A    between atoms: _38  and  _39
REMARK   17  A    between atoms: _38  and  _41
REMARK   18  A    between atoms: _41  and  _42
REMARK   19  A    between atoms: _45  and  _47
REMARK   20  A    between atoms: _47  and  _48
REMARK   21  A    between atoms: _47  and  _50
REMARK   22  A    between atoms: _50  and  _51
REMARK   23  A    between atoms: _54  and  _56
REMARK   24  A    between atoms: _56  and  _57
REMARK   25  A    between atoms: _59  and  _61
REMARK   26  A    between atoms: _61  and  _62
REMARK   27  A    between atoms: _65  and  _67
REMARK   28  A    between atoms: _67  and  _68
REMARK   29  A    between atoms: _67  and  _70
REMARK   30  A    between atoms: _70  and  _71
REMARK   31  A    between atoms: _74  and  _76
REMARK   32  A    between atoms: _76  and  _77
REMARK   33  A    between atoms: _76  and  _79
REMARK   34  A    between atoms: _79  and  _80
REMARK   35  A    between atoms: _83  and  _85
REMARK   36  A    between atoms: _85  and  _86
REMARK   37  A    between atoms: _85  and  _88
REMARK   38  A    between atoms: _88  and  _89
REMARK   39  A    between atoms: _92  and  _94
REMARK   40  A    between atoms: _94  and  _95
REMARK   41  A    between atoms: _94  and  _97
REMARK   42  A    between atoms: _100  and  _102
REMARK   43  A    between atoms: _102  and  _103
REMARK   44  A    between atoms: _102  and  _105
REMARK   45  A    between atoms: _105  and  _106
REMARK   46  A    between atoms: _106  and  _107
REMARK   47  A    between atoms: _107  and  _108
REMARK   48  A    between atoms: _108  and  _109
REMARK   49  A    between atoms: _113  and  _115
REMARK   50  A    between atoms: _115  and  _116
REMARK   51  A    between atoms: _115  and  _118
REMARK   52  A    between atoms: _118  and  _119
REMARK   53  A    between atoms: _119  and  _120
REMARK   54  A    between atoms: _122  and  _124
REMARK   55  A    between atoms: _124  and  _125
REMARK   56  A    between atoms: _124  and  _127
REMARK   57  A    between atoms: _127  and  _128
REMARK   58  A    between atoms: _131  and  _133
REMARK   59  A    between atoms: _133  and  _134
REMARK   60  A    between atoms: _136  and  _138
REMARK   61  A    between atoms: _138  and  _139
REMARK   62  A    between atoms: _141  and  _143
REMARK   63  A    between atoms: _143  and  _144
REMARK   64  A    between atoms: _143  and  _146
REMARK   65  A    between atoms: _146  and  _147
REMARK   66  A    between atoms: _150  and  _152
REMARK   67  A    between atoms: _152  and  _153
REMARK   68  A    between atoms: _155  and  _157
REMARK   69  A    between atoms: _157  and  _158
REMARK   70  A    between atoms: _160  and  _162
REMARK   71  A    between atoms: _162  and  _163
REMARK   72  A    between atoms: _162  and  _165
REMARK   73  A    between atoms: _165  and  _166
REMARK   74  A    between atoms: _172  and  _174
REMARK   75  A    between atoms: _174  and  _175
REMARK   76  A    between atoms: _174  and  _177
REMARK   77  A    between atoms: _177  and  _178
REMARK   78  A    between atoms: _181  and  _183
REMARK   79  A    between atoms: _183  and  _184
REMARK   80  A    between atoms: _183  and  _186
REMARK   81  A    between atoms: _186  and  _187
REMARK   82  A    between atoms: _191  and  _192
REMARK   83  A    between atoms: _197  and  _199
REMARK   84  A    between atoms: _199  and  _200
REMARK   85  A    between atoms: _199  and  _202
REMARK   86  A    between atoms: _202  and  _203
REMARK   87  A    between atoms: _207  and  _208
REMARK   88  A    between atoms: _213  and  _215
REMARK   89  A    between atoms: _215  and  _216
REMARK   90  A    between atoms: _215  and  _218
REMARK   91  A    between atoms: _221  and  _223
REMARK   92  A    between atoms: _223  and  _224
REMARK   93  A    between atoms: _223  and  _226
REMARK   94  A    between atoms: _226  and  _227
REMARK   95  A    between atoms: _232  and  _234
REMARK   96  A    between atoms: _234  and  _235
REMARK   97  A    between atoms: _234  and  _237
REMARK   98  A    between atoms: _237  and  _238
REMARK   99  A    between atoms: _241  and  _243
REMARK  100  A    between atoms: _243  and  _244
REMARK  101  A    between atoms: _246  and  _248
REMARK  102  A    between atoms: _248  and  _249
REMARK  103  A    between atoms: _248  and  _251
REMARK  104  A    between atoms: _251  and  _252
REMARK  105  A    between atoms: _252  and  _253
REMARK  106  A    between atoms: _253  and  _254
REMARK  107  A    between atoms: _263  and  _265
REMARK  108  A    between atoms: _265  and  _266
REMARK  109  A    between atoms: _265  and  _268
REMARK  110  A    between atoms: _268  and  _269
REMARK  111  A    between atoms: _269  and  _270
REMARK  112  A    between atoms: _270  and  _271
REMARK  113  A    between atoms: _280  and  _282
REMARK  114  A    between atoms: _282  and  _283
REMARK  115  A    between atoms: _282  and  _285
REMARK  116  A    between atoms: _285  and  _286
REMARK  117  A    between atoms: _289  and  _291
REMARK  118  A    between atoms: _291  and  _292
REMARK  119  A    between atoms: _291  and  _294
REMARK  120  A    between atoms: _294  and  _295
REMARK  121  A    between atoms: _298  and  _300
REMARK  122  A    between atoms: _300  and  _301
REMARK  123  A    between atoms: _300  and  _303
REMARK  124  A    between atoms: _303  and  _304
REMARK  125  A    between atoms: _307  and  _309
REMARK  126  A    between atoms: _309  and  _310
REMARK  127  A    between atoms: _309  and  _312
REMARK  128  A    between atoms: _312  and  _313
REMARK  129  A    between atoms: _316  and  _318
REMARK  130  A    between atoms: _318  and  _319
REMARK  131  A    between atoms: _318  and  _321
REMARK  132  A    between atoms: _321  and  _322
REMARK  133  A    between atoms: _325  and  _327
REMARK  134  A    between atoms: _327  and  _328
REMARK  135  A    between atoms: _330  and  _332
REMARK  136  A    between atoms: _332  and  _333
REMARK  137  A    between atoms: _336  and  _338
REMARK  138  A    between atoms: _338  and  _339
REMARK  139  A    between atoms: _338  and  _341
REMARK  140  A    between atoms: _341  and  _342
REMARK  141  A    between atoms: _345  and  _347
REMARK  142  A    between atoms: _347  and  _348
REMARK  143  A    between atoms: _347  and  _350
REMARK  144  A    between atoms: _350  and  _351
REMARK  145  A    between atoms: _354  and  _356
REMARK  146  A    between atoms: _356  and  _357
REMARK  147  A    between atoms: _356  and  _359
REMARK  148  A    between atoms: _359  and  _360
REMARK  149  A    between atoms: _363  and  _365
REMARK  150  A    between atoms: _365  and  _366
REMARK  151  A    between atoms: _365  and  _368
REMARK  152  A    between atoms: _371  and  _373
REMARK  153  A    between atoms: _373  and  _374
REMARK  154  A    between atoms: _373  and  _376
REMARK  155  A    between atoms: _376  and  _377
REMARK  156  A    between atoms: _380  and  _382
REMARK  157  A    between atoms: _382  and  _383
REMARK  158  A    between atoms: _382  and  _385
REMARK  159  A    between atoms: _385  and  _386
REMARK  160  A    between atoms: _386  and  _387
REMARK  161  A    between atoms: _387  and  _388
REMARK  162  A    between atoms: _388  and  _389
REMARK  163  A    between atoms: _393  and  _395
REMARK  164  A    between atoms: _395  and  _396
REMARK  165  A    between atoms: _395  and  _398
REMARK  166  A    between atoms: _398  and  _399
REMARK  167  A    between atoms: _399  and  _400
REMARK  168  A    between atoms: _402  and  _404
REMARK  169  A    between atoms: _404  and  _405
REMARK  170  A    between atoms: _404  and  _407
REMARK  171  A    between atoms: _407  and  _408
REMARK  172  A    between atoms: _411  and  _413
REMARK  173  A    between atoms: _413  and  _414
REMARK  174  A    between atoms: _416  and  _418
REMARK  175  A    between atoms: _418  and  _419
REMARK  176  A    between atoms: _421  and  _423
REMARK  177  A    between atoms: _423  and  _424
REMARK  178  A    between atoms: _423  and  _426
REMARK  179  A    between atoms: _426  and  _427
REMARK  180  A    between atoms: _430  and  _432
REMARK  181  A    between atoms: _432  and  _433
REMARK  182  A    between atoms: _435  and  _437
REMARK  183  A    between atoms: _437  and  _438
REMARK  184  A    between atoms: _440  and  _442
REMARK  185  A    between atoms: _442  and  _443
REMARK  186  A    between atoms: _442  and  _445
REMARK  187  A    between atoms: _445  and  _446
REMARK  188  A    between atoms: _449  and  _451
REMARK  189  A    between atoms: _451  and  _452
REMARK  190  A    between atoms: _451  and  _454
REMARK  191  A    between atoms: _457  and  _459
REMARK  192  A    between atoms: _459  and  _460
REMARK  193  A    between atoms: _459  and  _462
REMARK  194  A    between atoms: _462  and  _463
REMARK  195  A    between atoms: _467  and  _468
REMARK  196  A    between atoms: _473  and  _475
REMARK  197  A    between atoms: _475  and  _476
REMARK  198  A    between atoms: _475  and  _478
REMARK  199  A    between atoms: _478  and  _479
REMARK  200  A    between atoms: _483  and  _484
REMARK  201  A    between atoms: _489  and  _491
REMARK  202  A    between atoms: _491  and  _492
REMARK  203  A    between atoms: _491  and  _494
REMARK  204  A    between atoms: _497  and  _499
REMARK  205  A    between atoms: _499  and  _500
REMARK  206  A    between atoms: _499  and  _502
REMARK  207  A    between atoms: _502  and  _503
REMARK  208  A    between atoms: _508  and  _510
REMARK  209  A    between atoms: _510  and  _511
REMARK  210  A    between atoms: _510  and  _513
REMARK  211  A    between atoms: _513  and  _514
REMARK  212  A    between atoms: _517  and  _519
REMARK  213  A    between atoms: _519  and  _520
REMARK  214  A    between atoms: _519  and  _522
REMARK  215  A    between atoms: _522  and  _523
REMARK  216  A    between atoms: _526  and  _528
REMARK  217  A    between atoms: _528  and  _529
REMARK  218  A    between atoms: _531  and  _533
REMARK  219  A    between atoms: _533  and  _534
REMARK  220  A    between atoms: _533  and  _536
REMARK  221  A    between atoms: _536  and  _537
REMARK  222  A    between atoms: _537  and  _538
REMARK  223  A    between atoms: _538  and  _539
REMARK  224  A    between atoms: _548  and  _550
REMARK  225  A    between atoms: _550  and  _551
REMARK  226  A    between atoms: _550  and  _553
REMARK  227  A    between atoms: _553  and  _554
REMARK                            x       y       z     vdW  Elec       q    Type
REMARK                         _______ _______ _______ _____ _____    ______ ____
ROOT
ATOM      1  O   HOH     1       2.181  26.803   2.127  0.00  0.00    +0.000 OA
ENDROOT
TORSDOF 0
REMARK  Name = ../refined-set-2016/1hxw/1hxw_pocket.pdb
REMARK  227 active torsions:
REMARK  status: ('A' for Active; 'I' for Inactive)
REMARK    1  A    between atoms: _1  and  _3
REMARK    2  A    between atoms: _3  and  _4
REMARK    3  A    between atoms: _3  and  _6
REMARK    4  A    between atoms: _6  and  _7
REMARK    5  A    between atoms: _7  and  _8
REMARK    6  A    between atoms: _8  and  _9
REMARK    7  A    between atoms: _18  and  _20
REMARK    8  A    between atoms: _20  and  _21
REMARK    9  A    between atoms: _20  and  _23
REMARK   10  A    between atoms: _23  and  _24
REMARK   11  A    between atoms: _27  and  _29
REMARK   12  A    between atoms: _29  and  _30
REMARK   13  A    between atoms: _29  and  _32
REMARK   14  A    between atoms: _32  and  _33
REMARK   15  A    between atoms: _36  and  _38
REMARK   16  A    between atoms: _38  and  _39
REMARK   17  A    between atoms: _38  and  _41
REMARK   18  A    between atoms: _41  and  _42
REMARK   19  A    between atoms: _45  and  _47
REMARK   20  A    between atoms: _47  and  _48
REMARK   21  A    between atoms: _47  and  _50
REMARK   22  A    between atoms: _50  and  _51
REMARK   23  A    between atoms: _54  and  _56
REMARK   24  A    between atoms: _56  and  _57
REMARK   25  A    between atoms: _59  and  _61
REMARK   26  A    between atoms: _61  and  _62
REMARK   27  A    between atoms: _65  and  _67
REMARK   28  A    between atoms: _67  and  _68
REMARK   29  A    between atoms: _67  and  _70
REMARK   30  A    between atoms: _70  and  _71
REMARK   31  A    between atoms: _74  and  _76
REMARK   32  A    between atoms: _76  and  _77
REMARK   33  A    between atoms: _76  and  _79
REMARK   34  A    between atoms: _79  and  _80
REMARK   35  A    between atoms: _83  and  _85
REMARK   36  A    between atoms: _85  and  _86
REMARK   37  A    between atoms: _85  and  _88
REMARK   38  A    between atoms: _88  and  _89
REMARK   39  A    between atoms: _92  and  _94
REMARK   40  A    between atoms: _94  and  _95
REMARK   41  A    between atoms: _94  and  _97
REMARK   42  A    between atoms: _100  and  _102
REMARK   43  A    between atoms: _102  and  _103
REMARK   44  A    between atoms: _102  and  _105
REMARK   45  A    between atoms: _105  and  _106
REMARK   46  A    between atoms: _106  and  _107
REMARK   47  A    between atoms: _107  and  _108
REMARK   48  A    between atoms: _108  and  _109
REMARK   49  A    between atoms: _113  and  _115
REMARK   50  A    between atoms: _115  and  _116
REMARK   51  A    between atoms: _115  and  _118
REMARK   52  A    between atoms: _118  and  _119
REMARK   53  A    between atoms: _119  and  _120
REMARK   54  A    between atoms: _122  and  _124
REMARK   55  A    between atoms: _124  and  _125
REMARK   56  A    between atoms: _124  and  _127
REMARK   57  A    between atoms: _127  and  _128
REMARK   58  A    between atoms: _131  and  _133
REMARK   59  A    between atoms: _133  and  _134
REMARK   60  A    between atoms: _136  and  _138
REMARK   61  A    between atoms: _138  and  _139
REMARK   62  A    between atoms: _141  and  _143
REMARK   63  A    between atoms: _143  and  _144
REMARK   64  A    between atoms: _143  and  _146
REMARK   65  A    between atoms: _146  and  _147
REMARK   66  A    between atoms: _150  and  _152
REMARK   67  A    between atoms: _152  and  _153
REMARK   68  A    between atoms: _155  and  _157
REMARK   69  A    between atoms: _157  and  _158
REMARK   70  A    between atoms: _160  and  _162
REMARK   71  A    between atoms: _162  and  _163
REMARK   72  A    between atoms: _162  and  _165
REMARK   73  A    between atoms: _165  and  _166
REMARK   74  A    between atoms: _172  and  _174
REMARK   75  A    between atoms: _174  and  _175
REMARK   76  A    between atoms: _174  and  _177
REMARK   77  A    between atoms: _177  and  _178
REMARK   78  A    between atoms: _181  and  _183
REMARK   79  A    between atoms: _183  and  _184
REMARK   80  A    between atoms: _183  and  _186
REMARK   81  A    between atoms: _186  and  _187
REMARK   82  A    between atoms: _191  and  _192
REMARK   83  A    between atoms: _197  and  _199
REMARK   84  A    between atoms: _199  and  _200
REMARK   85  A    between atoms: _199  and  _202
REMARK   86  A    between atoms: _202  and  _203
REMARK   87  A    between atoms: _207  and  _208
REMARK   88  A    between atoms: _213  and  _215
REMARK   89  A    between atoms: _215  and  _216
REMARK   90  A    between atoms: _215  and  _218
REMARK   91  A    between atoms: _221  and  _223
REMARK   92  A    between atoms: _223  and  _224
REMARK   93  A    between atoms: _223  and  _226
REMARK   94  A    between atoms: _226  and  _227
REMARK   95  A    between atoms: _232  and  _234
REMARK   96  A    between atoms: _234  and  _235
REMARK   97  A    between atoms: _234  and  _237
REMARK   98  A    between atoms: _237  and  _238
REMARK   99  A    between atoms: _241  and  _243
REMARK  100  A    between atoms: _243  and  _244
REMARK  101  A    between atoms: _246  and  _248
REMARK  102  A    between atoms: _248  and  _249
REMARK  103  A    between atoms: _248  and  _251
REMARK  104  A    between atoms: _251  and  _252
REMARK  105  A    between atoms: _252  and  _253
REMARK  106  A    between atoms: _253  and  _254
REMARK  107  A    between atoms: _263  and  _265
REMARK  108  A    between atoms: _265  and  _266
REMARK  109  A    between atoms: _265  and  _268
REMARK  110  A    between atoms: _268  and  _269
REMARK  111  A    between atoms: _269  and  _270
REMARK  112  A    between atoms: _270  and  _271
REMARK  113  A    between atoms: _280  and  _282
REMARK  114  A    between atoms: _282  and  _283
REMARK  115  A    between atoms: _282  and  _285
REMARK  116  A    between atoms: _285  and  _286
REMARK  117  A    between atoms: _289  and  _291
REMARK  118  A    between atoms: _291  and  _292
REMARK  119  A    between atoms: _291  and  _294
REMARK  120  A    between atoms: _294  and  _295
REMARK  121  A    between atoms: _298  and  _300
REMARK  122  A    between atoms: _300  and  _301
REMARK  123  A    between atoms: _300  and  _303
REMARK  124  A    between atoms: _303  and  _304
REMARK  125  A    between atoms: _307  and  _309
REMARK  126  A    between atoms: _309  and  _310
REMARK  127  A    between atoms: _309  and  _312
REMARK  128  A    between atoms: _312  and  _313
REMARK  129  A    between atoms: _316  and  _318
REMARK  130  A    between atoms: _318  and  _319
REMARK  131  A    between atoms: _318  and  _321
REMARK  132  A    between atoms: _321  and  _322
REMARK  133  A    between atoms: _325  and  _327
REMARK  134  A    between atoms: _327  and  _328
REMARK  135  A    between atoms: _330  and  _332
REMARK  136  A    between atoms: _332  and  _333
REMARK  137  A    between atoms: _336  and  _338
REMARK  138  A    between atoms: _338  and  _339
REMARK  139  A    between atoms: _338  and  _341
REMARK  140  A    between atoms: _341  and  _342
REMARK  141  A    between atoms: _345  and  _347
REMARK  142  A    between atoms: _347  and  _348
REMARK  143  A    between atoms: _347  and  _350
REMARK  144  A    between atoms: _350  and  _351
REMARK  145  A    between atoms: _354  and  _356
REMARK  146  A    between atoms: _356  and  _357
REMARK  147  A    between atoms: _356  and  _359
REMARK  148  A    between atoms: _359  and  _360
REMARK  149  A    between atoms: _363  and  _365
REMARK  150  A    between atoms: _365  and  _366
REMARK  151  A    between atoms: _365  and  _368
REMARK  152  A    between atoms: _371  and  _373
REMARK  153  A    between atoms: _373  and  _374
REMARK  154  A    between atoms: _373  and  _376
REMARK  155  A    between atoms: _376  and  _377
REMARK  156  A    between atoms: _380  and  _382
REMARK  157  A    between atoms: _382  and  _383
REMARK  158  A    between atoms: _382  and  _385
REMARK  159  A    between atoms: _385  and  _386
REMARK  160  A    between atoms: _386  and  _387
REMARK  161  A    between atoms: _387  and  _388
REMARK  162  A    between atoms: _388  and  _389
REMARK  163  A    between atoms: _393  and  _395
REMARK  164  A    between atoms: _395  and  _396
REMARK  165  A    between atoms: _395  and  _398
REMARK  166  A    between atoms: _398  and  _399
REMARK  167  A    between atoms: _399  and  _400
REMARK  168  A    between atoms: _402  and  _404
REMARK  169  A    between atoms: _404  and  _405
REMARK  170  A    between atoms: _404  and  _407
REMARK  171  A    between atoms: _407  and  _408
REMARK  172  A    between atoms: _411  and  _413
REMARK  173  A    between atoms: _413  and  _414
REMARK  174  A    between atoms: _416  and  _418
REMARK  175  A    between atoms: _418  and  _419
REMARK  176  A    between atoms: _421  and  _423
REMARK  177  A    between atoms: _423  and  _424
REMARK  178  A    between atoms: _423  and  _426
REMARK  179  A    between atoms: _426  and  _427
REMARK  180  A    between atoms: _430  and  _432
REMARK  181  A    between atoms: _432  and  _433
REMARK  182  A    between atoms: _435  and  _437
REMARK  183  A    between atoms: _437  and  _438
REMARK  184  A    between atoms: _440  and  _442
REMARK  185  A    between atoms: _442  and  _443
REMARK  186  A    between atoms: _442  and  _445
REMARK  187  A    between atoms: _445  and  _446
REMARK  188  A    between atoms: _449  and  _451
REMARK  189  A    between atoms: _451  and  _452
REMARK  190  A    between atoms: _451  and  _454
REMARK  191  A    between atoms: _457  and  _459
REMARK  192  A    between atoms: _459  and  _460
REMARK  193  A    between atoms: _459  and  _462
REMARK  194  A    between atoms: _462  and  _463
REMARK  195  A    between atoms: _467  and  _468
REMARK  196  A    between atoms: _473  and  _475
REMARK  197  A    between atoms: _475  and  _476
REMARK  198  A    between atoms: _475  and  _478
REMARK  199  A    between atoms: _478  and  _479
REMARK  200  A    between atoms: _483  and  _484
REMARK  201  A    between atoms: _489  and  _491
REMARK  202  A    between atoms: _491  and  _492
REMARK  203  A    between atoms: _491  and  _494
REMARK  204  A    between atoms: _497  and  _499
REMARK  205  A    between atoms: _499  and  _500
REMARK  206  A    between atoms: _499  and  _502
REMARK  207  A    between atoms: _502  and  _503
REMARK  208  A    between atoms: _508  and  _510
REMARK  209  A    between atoms: _510  and  _511
REMARK  210  A    between atoms: _510  and  _513
REMARK  211  A    between atoms: _513  and  _514
REMARK  212  A    between atoms: _517  and  _519
REMARK  213  A    between atoms: _519  and  _520
REMARK  214  A    between atoms: _519  and  _522
REMARK  215  A    between atoms: _522  and  _523
REMARK  216  A    between atoms: _526  and  _528
REMARK  217  A    between atoms: _528  and  _529
REMARK  218  A    between atoms: _531  and  _533
REMARK  219  A    between atoms: _533  and  _534
REMARK  220  A    between atoms: _533  and  _536
REMARK  221  A    between atoms: _536  and  _537
REMARK  222  A    between atoms: _537  and  _538
REMARK  223  A    between atoms: _538  and  _539
REMARK  224  A    between atoms: _548  and  _550
REMARK  225  A    between atoms: _550  and  _551
REMARK  226  A    between atoms: _550  and  _553
REMARK  227  A    between atoms: _553  and  _554
REMARK                            x       y       z     vdW  Elec       q    Type
REMARK                         _______ _______ _______ _____ _____    ______ ____
ROOT
ATOM      1  O   HOH     1       1.878  29.722  -0.827  0.00  0.00    +0.000 OA
ENDROOT
TORSDOF 0
REMARK  Name = ../refined-set-2016/1hxw/1hxw_pocket.pdb
REMARK  227 active torsions:
REMARK  status: ('A' for Active; 'I' for Inactive)
REMARK    1  A    between atoms: _1  and  _3
REMARK    2  A    between atoms: _3  and  _4
REMARK    3  A    between atoms: _3  and  _6
REMARK    4  A    between atoms: _6  and  _7
REMARK    5  A    between atoms: _7  and  _8
REMARK    6  A    between atoms: _8  and  _9
REMARK    7  A    between atoms: _18  and  _20
REMARK    8  A    between atoms: _20  and  _21
REMARK    9  A    between atoms: _20  and  _23
REMARK   10  A    between atoms: _23  and  _24
REMARK   11  A    between atoms: _27  and  _29
REMARK   12  A    between atoms: _29  and  _30
REMARK   13  A    between atoms: _29  and  _32
REMARK   14  A    between atoms: _32  and  _33
REMARK   15  A    between atoms: _36  and  _38
REMARK   16  A    between atoms: _38  and  _39
REMARK   17  A    between atoms: _38  and  _41
REMARK   18  A    between atoms: _41  and  _42
REMARK   19  A    between atoms: _45  and  _47
REMARK   20  A    between atoms: _47  and  _48
REMARK   21  A    between atoms: _47  and  _50
REMARK   22  A    between atoms: _50  and  _51
REMARK   23  A    between atoms: _54  and  _56
REMARK   24  A    between atoms: _56  and  _57
REMARK   25  A    between atoms: _59  and  _61
REMARK   26  A    between atoms: _61  and  _62
REMARK   27  A    between atoms: _65  and  _67
REMARK   28  A    between atoms: _67  and  _68
REMARK   29  A    between atoms: _67  and  _70
REMARK   30  A    between atoms: _70  and  _71
REMARK   31  A    between atoms: _74  and  _76
REMARK   32  A    between atoms: _76  and  _77
REMARK   33  A    between atoms: _76  and  _79
REMARK   34  A    between atoms: _79  and  _80
REMARK   35  A    between atoms: _83  and  _85
REMARK   36  A    between atoms: _85  and  _86
REMARK   37  A    between atoms: _85  and  _88
REMARK   38  A    between atoms: _88  and  _89
REMARK   39  A    between atoms: _92  and  _94
REMARK   40  A    between atoms: _94  and  _95
REMARK   41  A    between atoms: _94  and  _97
REMARK   42  A    between atoms: _100  and  _102
REMARK   43  A    between atoms: _102  and  _103
REMARK   44  A    between atoms: _102  and  _105
REMARK   45  A    between atoms: _105  and  _106
REMARK   46  A    between atoms: _106  and  _107
REMARK   47  A    between atoms: _107  and  _108
REMARK   48  A    between atoms: _108  and  _109
REMARK   49  A    between atoms: _113  and  _115
REMARK   50  A    between atoms: _115  and  _116
REMARK   51  A    between atoms: _115  and  _118
REMARK   52  A    between atoms: _118  and  _119
REMARK   53  A    between atoms: _119  and  _120
REMARK   54  A    between atoms: _122  and  _124
REMARK   55  A    between atoms: _124  and  _125
REMARK   56  A    between atoms: _124  and  _127
REMARK   57  A    between atoms: _127  and  _128
REMARK   58  A    between atoms: _131  and  _133
REMARK   59  A    between atoms: _133  and  _134
REMARK   60  A    between atoms: _136  and  _138
REMARK   61  A    between atoms: _138  and  _139
REMARK   62  A    between atoms: _141  and  _143
REMARK   63  A    between atoms: _143  and  _144
REMARK   64  A    between atoms: _143  and  _146
REMARK   65  A    between atoms: _146  and  _147
REMARK   66  A    between atoms: _150  and  _152
REMARK   67  A    between atoms: _152  and  _153
REMARK   68  A    between atoms: _155  and  _157
REMARK   69  A    between atoms: _157  and  _158
REMARK   70  A    between atoms: _160  and  _162
REMARK   71  A    between atoms: _162  and  _163
REMARK   72  A    between atoms: _162  and  _165
REMARK   73  A    between atoms: _165  and  _166
REMARK   74  A    between atoms: _172  and  _174
REMARK   75  A    between atoms: _174  and  _175
REMARK   76  A    between atoms: _174  and  _177
REMARK   77  A    between atoms: _177  and  _178
REMARK   78  A    between atoms: _181  and  _183
REMARK   79  A    between atoms: _183  and  _184
REMARK   80  A    between atoms: _183  and  _186
REMARK   81  A    between atoms: _186  and  _187
REMARK   82  A    between atoms: _191  and  _192
REMARK   83  A    between atoms: _197  and  _199
REMARK   84  A    between atoms: _199  and  _200
REMARK   85  A    between atoms: _199  and  _202
REMARK   86  A    between atoms: _202  and  _203
REMARK   87  A    between atoms: _207  and  _208
REMARK   88  A    between atoms: _213  and  _215
REMARK   89  A    between atoms: _215  and  _216
REMARK   90  A    between atoms: _215  and  _218
REMARK   91  A    between atoms: _221  and  _223
REMARK   92  A    between atoms: _223  and  _224
REMARK   93  A    between atoms: _223  and  _226
REMARK   94  A    between atoms: _226  and  _227
REMARK   95  A    between atoms: _232  and  _234
REMARK   96  A    between atoms: _234  and  _235
REMARK   97  A    between atoms: _234  and  _237
REMARK   98  A    between atoms: _237  and  _238
REMARK   99  A    between atoms: _241  and  _243
REMARK  100  A    between atoms: _243  and  _244
REMARK  101  A    between atoms: _246  and  _248
REMARK  102  A    between atoms: _248  and  _249
REMARK  103  A    between atoms: _248  and  _251
REMARK  104  A    between atoms: _251  and  _252
REMARK  105  A    between atoms: _252  and  _253
REMARK  106  A    between atoms: _253  and  _254
REMARK  107  A    between atoms: _263  and  _265
REMARK  108  A    between atoms: _265  and  _266
REMARK  109  A    between atoms: _265  and  _268
REMARK  110  A    between atoms: _268  and  _269
REMARK  111  A    between atoms: _269  and  _270
REMARK  112  A    between atoms: _270  and  _271
REMARK  113  A    between atoms: _280  and  _282
REMARK  114  A    between atoms: _282  and  _283
REMARK  115  A    between atoms: _282  and  _285
REMARK  116  A    between atoms: _285  and  _286
REMARK  117  A    between atoms: _289  and  _291
REMARK  118  A    between atoms: _291  and  _292
REMARK  119  A    between atoms: _291  and  _294
REMARK  120  A    between atoms: _294  and  _295
REMARK  121  A    between atoms: _298  and  _300
REMARK  122  A    between atoms: _300  and  _301
REMARK  123  A    between atoms: _300  and  _303
REMARK  124  A    between atoms: _303  and  _304
REMARK  125  A    between atoms: _307  and  _309
REMARK  126  A    between atoms: _309  and  _310
REMARK  127  A    between atoms: _309  and  _312
REMARK  128  A    between atoms: _312  and  _313
REMARK  129  A    between atoms: _316  and  _318
REMARK  130  A    between atoms: _318  and  _319
REMARK  131  A    between atoms: _318  and  _321
REMARK  132  A    between atoms: _321  and  _322
REMARK  133  A    between atoms: _325  and  _327
REMARK  134  A    between atoms: _327  and  _328
REMARK  135  A    between atoms: _330  and  _332
REMARK  136  A    between atoms: _332  and  _333
REMARK  137  A    between atoms: _336  and  _338
REMARK  138  A    between atoms: _338  and  _339
REMARK  139  A    between atoms: _338  and  _341
REMARK  140  A    between atoms: _341  and  _342
REMARK  141  A    between atoms: _345  and  _347
REMARK  142  A    between atoms: _347  and  _348
REMARK  143  A    between atoms: _347  and  _350
REMARK  144  A    between atoms: _350  and  _351
REMARK  145  A    between atoms: _354  and  _356
REMARK  146  A    between atoms: _356  and  _357
REMARK  147  A    between atoms: _356  and  _359
REMARK  148  A    between atoms: _359  and  _360
REMARK  149  A    between atoms: _363  and  _365
REMARK  150  A    between atoms: _365  and  _366
REMARK  151  A    between atoms: _365  and  _368
REMARK  152  A    between atoms: _371  and  _373
REMARK  153  A    between atoms: _373  and  _374
REMARK  154  A    between atoms: _373  and  _376
REMARK  155  A    between atoms: _376  and  _377
REMARK  156  A    between atoms: _380  and  _382
REMARK  157  A    between atoms: _382  and  _383
REMARK  158  A    between atoms: _382  and  _385
REMARK  159  A    between atoms: _385  and  _386
REMARK  160  A    between atoms: _386  and  _387
REMARK  161  A    between atoms: _387  and  _388
REMARK  162  A    between atoms: _388  and  _389
REMARK  163  A    between atoms: _393  and  _395
REMARK  164  A    between atoms: _395  and  _396
REMARK  165  A    between atoms: _395  and  _398
REMARK  166  A    between atoms: _398  and  _399
REMARK  167  A    between atoms: _399  and  _400
REMARK  168  A    between atoms: _402  and  _404
REMARK  169  A    between atoms: _404  and  _405
REMARK  170  A    between atoms: _404  and  _407
REMARK  171  A    between atoms: _407  and  _408
REMARK  172  A    between atoms: _411  and  _413
REMARK  173  A    between atoms: _413  and  _414
REMARK  174  A    between atoms: _416  and  _418
REMARK  175  A    between atoms: _418  and  _419
REMARK  176  A    between atoms: _421  and  _423
REMARK  177  A    between atoms: _423  and  _424
REMARK  178  A    between atoms: _423  and  _426
REMARK  179  A    between atoms: _426  and  _427
REMARK  180  A    between atoms: _430  and  _432
REMARK  181  A    between atoms: _432  and  _433
REMARK  182  A    between atoms: _435  and  _437
REMARK  183  A    between atoms: _437  and  _438
REMARK  184  A    between atoms: _440  and  _442
REMARK  185  A    between atoms: _442  and  _443
REMARK  186  A    between atoms: _442  and  _445
REMARK  187  A    between atoms: _445  and  _446
REMARK  188  A    between atoms: _449  and  _451
REMARK  189  A    between atoms: _451  and  _452
REMARK  190  A    between atoms: _451  and  _454
REMARK  191  A    between atoms: _457  and  _459
REMARK  192  A    between atoms: _459  and  _460
REMARK  193  A    between atoms: _459  and  _462
REMARK  194  A    between atoms: _462  and  _463
REMARK  195  A    between atoms: _467  and  _468
REMARK  196  A    between atoms: _473  and  _475
REMARK  197  A    between atoms: _475  and  _476
REMARK  198  A    between atoms: _475  and  _478
REMARK  199  A    between atoms: _478  and  _479
REMARK  200  A    between atoms: _483  and  _484
REMARK  201  A    between atoms: _489  and  _491
REMARK  202  A    between atoms: _491  and  _492
REMARK  203  A    between atoms: _491  and  _494
REMARK  204  A    between atoms: _497  and  _499
REMARK  205  A    between atoms: _499  and  _500
REMARK  206  A    between atoms: _499  and  _502
REMARK  207  A    between atoms: _502  and  _503
REMARK  208  A    between atoms: _508  and  _510
REMARK  209  A    between atoms: _510  and  _511
REMARK  210  A    between atoms: _510  and  _513
REMARK  211  A    between atoms: _513  and  _514
REMARK  212  A    between atoms: _517  and  _519
REMARK  213  A    between atoms: _519  and  _520
REMARK  214  A    between atoms: _519  and  _522
REMARK  215  A    between atoms: _522  and  _523
REMARK  216  A    between atoms: _526  and  _528
REMARK  217  A    between atoms: _528  and  _529
REMARK  218  A    between atoms: _531  and  _533
REMARK  219  A    between atoms: _533  and  _534
REMARK  220  A    between atoms: _533  and  _536
REMARK  221  A    between atoms: _536  and  _537
REMARK  222  A    between atoms: _537  and  _538
REMARK  223  A    between atoms: _538  and  _539
REMARK  224  A    between atoms: _548  and  _550
REMARK  225  A    between atoms: _550  and  _551
REMARK  226  A    between atoms: _550  and  _553
REMARK  227  A    between atoms: _553  and  _554
REMARK                            x       y       z     vdW  Elec       q    Type
REMARK                         _______ _______ _______ _____ _____    ______ ____
ROOT
ATOM      1  O   HOH     1      24.406  15.840   2.350  0.00  0.00    +0.000 OA
ENDROOT
TORSDOF 0
REMARK  Name = ../refined-set-2016/1hxw/1hxw_pocket.pdb
REMARK  227 active torsions:
REMARK  status: ('A' for Active; 'I' for Inactive)
REMARK    1  A    between atoms: _1  and  _3
REMARK    2  A    between atoms: _3  and  _4
REMARK    3  A    between atoms: _3  and  _6
REMARK    4  A    between atoms: _6  and  _7
REMARK    5  A    between atoms: _7  and  _8
REMARK    6  A    between atoms: _8  and  _9
REMARK    7  A    between atoms: _18  and  _20
REMARK    8  A    between atoms: _20  and  _21
REMARK    9  A    between atoms: _20  and  _23
REMARK   10  A    between atoms: _23  and  _24
REMARK   11  A    between atoms: _27  and  _29
REMARK   12  A    between atoms: _29  and  _30
REMARK   13  A    between atoms: _29  and  _32
REMARK   14  A    between atoms: _32  and  _33
REMARK   15  A    between atoms: _36  and  _38
REMARK   16  A    between atoms: _38  and  _39
REMARK   17  A    between atoms: _38  and  _41
REMARK   18  A    between atoms: _41  and  _42
REMARK   19  A    between atoms: _45  and  _47
REMARK   20  A    between atoms: _47  and  _48
REMARK   21  A    between atoms: _47  and  _50
REMARK   22  A    between atoms: _50  and  _51
REMARK   23  A    between atoms: _54  and  _56
REMARK   24  A    between atoms: _56  and  _57
REMARK   25  A    between atoms: _59  and  _61
REMARK   26  A    between atoms: _61  and  _62
REMARK   27  A    between atoms: _65  and  _67
REMARK   28  A    between atoms: _67  and  _68
REMARK   29  A    between atoms: _67  and  _70
REMARK   30  A    between atoms: _70  and  _71
REMARK   31  A    between atoms: _74  and  _76
REMARK   32  A    between atoms: _76  and  _77
REMARK   33  A    between atoms: _76  and  _79
REMARK   34  A    between atoms: _79  and  _80
REMARK   35  A    between atoms: _83  and  _85
REMARK   36  A    between atoms: _85  and  _86
REMARK   37  A    between atoms: _85  and  _88
REMARK   38  A    between atoms: _88  and  _89
REMARK   39  A    between atoms: _92  and  _94
REMARK   40  A    between atoms: _94  and  _95
REMARK   41  A    between atoms: _94  and  _97
REMARK   42  A    between atoms: _100  and  _102
REMARK   43  A    between atoms: _102  and  _103
REMARK   44  A    between atoms: _102  and  _105
REMARK   45  A    between atoms: _105  and  _106
REMARK   46  A    between atoms: _106  and  _107
REMARK   47  A    between atoms: _107  and  _108
REMARK   48  A    between atoms: _108  and  _109
REMARK   49  A    between atoms: _113  and  _115
REMARK   50  A    between atoms: _115  and  _116
REMARK   51  A    between atoms: _115  and  _118
REMARK   52  A    between atoms: _118  and  _119
REMARK   53  A    between atoms: _119  and  _120
REMARK   54  A    between atoms: _122  and  _124
REMARK   55  A    between atoms: _124  and  _125
REMARK   56  A    between atoms: _124  and  _127
REMARK   57  A    between atoms: _127  and  _128
REMARK   58  A    between atoms: _131  and  _133
REMARK   59  A    between atoms: _133  and  _134
REMARK   60  A    between atoms: _136  and  _138
REMARK   61  A    between atoms: _138  and  _139
REMARK   62  A    between atoms: _141  and  _143
REMARK   63  A    between atoms: _143  and  _144
REMARK   64  A    between atoms: _143  and  _146
REMARK   65  A    between atoms: _146  and  _147
REMARK   66  A    between atoms: _150  and  _152
REMARK   67  A    between atoms: _152  and  _153
REMARK   68  A    between atoms: _155  and  _157
REMARK   69  A    between atoms: _157  and  _158
REMARK   70  A    between atoms: _160  and  _162
REMARK   71  A    between atoms: _162  and  _163
REMARK   72  A    between atoms: _162  and  _165
REMARK   73  A    between atoms: _165  and  _166
REMARK   74  A    between atoms: _172  and  _174
REMARK   75  A    between atoms: _174  and  _175
REMARK   76  A    between atoms: _174  and  _177
REMARK   77  A    between atoms: _177  and  _178
REMARK   78  A    between atoms: _181  and  _183
REMARK   79  A    between atoms: _183  and  _184
REMARK   80  A    between atoms: _183  and  _186
REMARK   81  A    between atoms: _186  and  _187
REMARK   82  A    between atoms: _191  and  _192
REMARK   83  A    between atoms: _197  and  _199
REMARK   84  A    between atoms: _199  and  _200
REMARK   85  A    between atoms: _199  and  _202
REMARK   86  A    between atoms: _202  and  _203
REMARK   87  A    between atoms: _207  and  _208
REMARK   88  A    between atoms: _213  and  _215
REMARK   89  A    between atoms: _215  and  _216
REMARK   90  A    between atoms: _215  and  _218
REMARK   91  A    between atoms: _221  and  _223
REMARK   92  A    between atoms: _223  and  _224
REMARK   93  A    between atoms: _223  and  _226
REMARK   94  A    between atoms: _226  and  _227
REMARK   95  A    between atoms: _232  and  _234
REMARK   96  A    between atoms: _234  and  _235
REMARK   97  A    between atoms: _234  and  _237
REMARK   98  A    between atoms: _237  and  _238
REMARK   99  A    between atoms: _241  and  _243
REMARK  100  A    between atoms: _243  and  _244
REMARK  101  A    between atoms: _246  and  _248
REMARK  102  A    between atoms: _248  and  _249
REMARK  103  A    between atoms: _248  and  _251
REMARK  104  A    between atoms: _251  and  _252
REMARK  105  A    between atoms: _252  and  _253
REMARK  106  A    between atoms: _253  and  _254
REMARK  107  A    between atoms: _263  and  _265
REMARK  108  A    between atoms: _265  and  _266
REMARK  109  A    between atoms: _265  and  _268
REMARK  110  A    between atoms: _268  and  _269
REMARK  111  A    between atoms: _269  and  _270
REMARK  112  A    between atoms: _270  and  _271
REMARK  113  A    between atoms: _280  and  _282
REMARK  114  A    between atoms: _282  and  _283
REMARK  115  A    between atoms: _282  and  _285
REMARK  116  A    between atoms: _285  and  _286
REMARK  117  A    between atoms: _289  and  _291
REMARK  118  A    between atoms: _291  and  _292
REMARK  119  A    between atoms: _291  and  _294
REMARK  120  A    between atoms: _294  and  _295
REMARK  121  A    between atoms: _298  and  _300
REMARK  122  A    between atoms: _300  and  _301
REMARK  123  A    between atoms: _300  and  _303
REMARK  124  A    between atoms: _303  and  _304
REMARK  125  A    between atoms: _307  and  _309
REMARK  126  A    between atoms: _309  and  _310
REMARK  127  A    between atoms: _309  and  _312
REMARK  128  A    between atoms: _312  and  _313
REMARK  129  A    between atoms: _316  and  _318
REMARK  130  A    between atoms: _318  and  _319
REMARK  131  A    between atoms: _318  and  _321
REMARK  132  A    between atoms: _321  and  _322
REMARK  133  A    between atoms: _325  and  _327
REMARK  134  A    between atoms: _327  and  _328
REMARK  135  A    between atoms: _330  and  _332
REMARK  136  A    between atoms: _332  and  _333
REMARK  137  A    between atoms: _336  and  _338
REMARK  138  A    between atoms: _338  and  _339
REMARK  139  A    between atoms: _338  and  _341
REMARK  140  A    between atoms: _341  and  _342
REMARK  141  A    between atoms: _345  and  _347
REMARK  142  A    between atoms: _347  and  _348
REMARK  143  A    between atoms: _347  and  _350
REMARK  144  A    between atoms: _350  and  _351
REMARK  145  A    between atoms: _354  and  _356
REMARK  146  A    between atoms: _356  and  _357
REMARK  147  A    between atoms: _356  and  _359
REMARK  148  A    between atoms: _359  and  _360
REMARK  149  A    between atoms: _363  and  _365
REMARK  150  A    between atoms: _365  and  _366
REMARK  151  A    between atoms: _365  and  _368
REMARK  152  A    between atoms: _371  and  _373
REMARK  153  A    between atoms: _373  and  _374
REMARK  154  A    between atoms: _373  and  _376
REMARK  155  A    between atoms: _376  and  _377
REMARK  156  A    between atoms: _380  and  _382
REMARK  157  A    between atoms: _382  and  _383
REMARK  158  A    between atoms: _382  and  _385
REMARK  159  A    between atoms: _385  and  _386
REMARK  160  A    between atoms: _386  and  _387
REMARK  161  A    between atoms: _387  and  _388
REMARK  162  A    between atoms: _388  and  _389
REMARK  163  A    between atoms: _393  and  _395
REMARK  164  A    between atoms: _395  and  _396
REMARK  165  A    between atoms: _395  and  _398
REMARK  166  A    between atoms: _398  and  _399
REMARK  167  A    between atoms: _399  and  _400
REMARK  168  A    between atoms: _402  and  _404
REMARK  169  A    between atoms: _404  and  _405
REMARK  170  A    between atoms: _404  and  _407
REMARK  171  A    between atoms: _407  and  _408
REMARK  172  A    between atoms: _411  and  _413
REMARK  173  A    between atoms: _413  and  _414
REMARK  174  A    between atoms: _416  and  _418
REMARK  175  A    between atoms: _418  and  _419
REMARK  176  A    between atoms: _421  and  _423
REMARK  177  A    between atoms: _423  and  _424
REMARK  178  A    between atoms: _423  and  _426
REMARK  179  A    between atoms: _426  and  _427
REMARK  180  A    between atoms: _430  and  _432
REMARK  181  A    between atoms: _432  and  _433
REMARK  182  A    between atoms: _435  and  _437
REMARK  183  A    between atoms: _437  and  _438
REMARK  184  A    between atoms: _440  and  _442
REMARK  185  A    between atoms: _442  and  _443
REMARK  186  A    between atoms: _442  and  _445
REMARK  187  A    between atoms: _445  and  _446
REMARK  188  A    between atoms: _449  and  _451
REMARK  189  A    between atoms: _451  and  _452
REMARK  190  A    between atoms: _451  and  _454
REMARK  191  A    between atoms: _457  and  _459
REMARK  192  A    between atoms: _459  and  _460
REMARK  193  A    between atoms: _459  and  _462
REMARK  194  A    between atoms: _462  and  _463
REMARK  195  A    between atoms: _467  and  _468
REMARK  196  A    between atoms: _473  and  _475
REMARK  197  A    between atoms: _475  and  _476
REMARK  198  A    between atoms: _475  and  _478
REMARK  199  A    between atoms: _478  and  _479
REMARK  200  A    between atoms: _483  and  _484
REMARK  201  A    between atoms: _489  and  _491
REMARK  202  A    between atoms: _491  and  _492
REMARK  203  A    between atoms: _491  and  _494
REMARK  204  A    between atoms: _497  and  _499
REMARK  205  A    between atoms: _499  and  _500
REMARK  206  A    between atoms: _499  and  _502
REMARK  207  A    between atoms: _502  and  _503
REMARK  208  A    between atoms: _508  and  _510
REMARK  209  A    between atoms: _510  and  _511
REMARK  210  A    between atoms: _510  and  _513
REMARK  211  A    between atoms: _513  and  _514
REMARK  212  A    between atoms: _517  and  _519
REMARK  213  A    between atoms: _519  and  _520
REMARK  214  A    between atoms: _519  and  _522
REMARK  215  A    between atoms: _522  and  _523
REMARK  216  A    between atoms: _526  and  _528
REMARK  217  A    between atoms: _528  and  _529
REMARK  218  A    between atoms: _531  and  _533
REMARK  219  A    between atoms: _533  and  _534
REMARK  220  A    between atoms: _533  and  _536
REMARK  221  A    between atoms: _536  and  _537
REMARK  222  A    between atoms: _537  and  _538
REMARK  223  A    between atoms: _538  and  _539
REMARK  224  A    between atoms: _548  and  _550
REMARK  225  A    between atoms: _550  and  _551
REMARK  226  A    between atoms: _550  and  _553
REMARK  227  A    between atoms: _553  and  _554
REMARK                            x       y       z     vdW  Elec       q    Type
REMARK                         _______ _______ _______ _____ _____    ______ ____
ROOT
ATOM      1  O   HOH     1      11.938  15.371  13.091  0.00  0.00    +0.000 OA
ENDROOT
TORSDOF 0
