REMARK  Name = ../refined-set-2016/2za0/2za0_pocket.pdb
REMARK  182 active torsions:
REMARK  status: ('A' for Active; 'I' for Inactive)
REMARK    1  A    between atoms: _1  and  _3
REMARK    2  A    between atoms: _3  and  _4
REMARK    3  A    between atoms: _3  and  _6
REMARK    4  A    between atoms: _6  and  _7
REMARK    5  A    between atoms: _7  and  _8
REMARK    6  A    between atoms: _8  and  _9
REMARK    7  A    between atoms: _18  and  _20
REMARK    8  A    between atoms: _20  and  _21
REMARK    9  A    between atoms: _20  and  _23
REMARK   10  A    between atoms: _23  and  _24
REMARK   11  A    between atoms: _28  and  ZN_411
REMARK   12  A    between atoms: _29  and  _31
REMARK   13  A    between atoms: _31  and  _32
REMARK   14  A    between atoms: _31  and  _34
REMARK   15  A    between atoms: _34  and  _35
REMARK   16  A    between atoms: _38  and  _40
REMARK   17  A    between atoms: _40  and  _41
REMARK   18  A    between atoms: _43  and  _45
REMARK   19  A    between atoms: _45  and  _46
REMARK   20  A    between atoms: _45  and  _48
REMARK   21  A    between atoms: _48  and  _49
REMARK   22  A    between atoms: _52  and  _54
REMARK   23  A    between atoms: _54  and  _55
REMARK   24  A    between atoms: _54  and  _57
REMARK   25  A    between atoms: _60  and  _62
REMARK   26  A    between atoms: _62  and  _63
REMARK   27  A    between atoms: _62  and  _65
REMARK   28  A    between atoms: _65  and  _66
REMARK   29  A    between atoms: _66  and  _67
REMARK   30  A    between atoms: _67  and  _68
REMARK   31  A    between atoms: _68  and  _69
REMARK   32  A    between atoms: _73  and  _75
REMARK   33  A    between atoms: _75  and  _76
REMARK   34  A    between atoms: _75  and  _78
REMARK   35  A    between atoms: _78  and  _79
REMARK   36  A    between atoms: _82  and  _84
REMARK   37  A    between atoms: _84  and  _85
REMARK   38  A    between atoms: _87  and  _89
REMARK   39  A    between atoms: _89  and  _90
REMARK   40  A    between atoms: _89  and  _92
REMARK   41  A    between atoms: _92  and  _93
REMARK   42  A    between atoms: _93  and  _94
REMARK   43  A    between atoms: _94  and  _95
REMARK   44  A    between atoms: _95  and  _96
REMARK   45  A    between atoms: _100  and  _102
REMARK   46  A    between atoms: _102  and  _103
REMARK   47  A    between atoms: _102  and  _105
REMARK   48  A    between atoms: _105  and  _106
REMARK   49  A    between atoms: _106  and  _107
REMARK   50  A    between atoms: _109  and  _111
REMARK   51  A    between atoms: _111  and  _112
REMARK   52  A    between atoms: _111  and  _114
REMARK   53  A    between atoms: _114  and  _115
REMARK   54  A    between atoms: _115  and  _116
REMARK   55  A    between atoms: _116  and  _117
REMARK   56  A    between atoms: _117  and  _118
REMARK   57  A    between atoms: _122  and  _124
REMARK   58  A    between atoms: _124  and  _125
REMARK   59  A    between atoms: _124  and  _127
REMARK   60  A    between atoms: _127  and  _128
REMARK   61  A    between atoms: _131  and  _133
REMARK   62  A    between atoms: _133  and  _134
REMARK   63  A    between atoms: _137  and  _139
REMARK   64  A    between atoms: _139  and  _140
REMARK   65  A    between atoms: _139  and  _142
REMARK   66  A    between atoms: _142  and  _143
REMARK   67  A    between atoms: _149  and  _151
REMARK   68  A    between atoms: _151  and  _152
REMARK   69  A    between atoms: _151  and  _154
REMARK   70  A    between atoms: _154  and  _155
REMARK   71  A    between atoms: _165  and  _167
REMARK   72  A    between atoms: _167  and  _168
REMARK   73  A    between atoms: _167  and  _170
REMARK   74  A    between atoms: _170  and  _171
REMARK   75  A    between atoms: _171  and  _172
REMARK   76  A    between atoms: _172  and  _173
REMARK   77  A    between atoms: _173  and  ZN_411
REMARK   78  A    between atoms: _175  and  _177
REMARK   79  A    between atoms: _177  and  _178
REMARK   80  A    between atoms: _177  and  _180
REMARK   81  A    between atoms: _180  and  _181
REMARK   82  A    between atoms: _184  and  _186
REMARK   83  A    between atoms: _186  and  _187
REMARK   84  A    between atoms: _186  and  _189
REMARK   85  A    between atoms: _189  and  _190
REMARK   86  A    between atoms: _193  and  _195
REMARK   87  A    between atoms: _195  and  _196
REMARK   88  A    between atoms: _195  and  _198
REMARK   89  A    between atoms: _198  and  _199
REMARK   90  A    between atoms: _199  and  _200
REMARK   91  A    between atoms: _200  and  _201
REMARK   92  A    between atoms: _201  and  _202
REMARK   93  A    between atoms: _206  and  _208
REMARK   94  A    between atoms: _208  and  _209
REMARK   95  A    between atoms: _208  and  _211
REMARK   96  A    between atoms: _211  and  _212
REMARK   97  A    between atoms: _215  and  _217
REMARK   98  A    between atoms: _217  and  _218
REMARK   99  A    between atoms: _221  and  _223
REMARK  100  A    between atoms: _223  and  _224
REMARK  101  A    between atoms: _223  and  _226
REMARK  102  A    between atoms: _226  and  _227
REMARK  103  A    between atoms: _230  and  _232
REMARK  104  A    between atoms: _232  and  _233
REMARK  105  A    between atoms: _232  and  _235
REMARK  106  A    between atoms: _235  and  _236
REMARK  107  A    between atoms: _236  and  _237
REMARK  108  A    between atoms: _242  and  _244
REMARK  109  A    between atoms: _244  and  _245
REMARK  110  A    between atoms: _244  and  _247
REMARK  111  A    between atoms: _247  and  _248
REMARK  112  A    between atoms: _248  and  _249
REMARK  113  A    between atoms: _249  and  _250
REMARK  114  A    between atoms: _249  and  _251
REMARK  115  A    between atoms: _250  and  ZN_411
REMARK  116  A    between atoms: _254  and  _256
REMARK  117  A    between atoms: _256  and  _257
REMARK  118  A    between atoms: _256  and  _259
REMARK  119  A    between atoms: _259  and  _260
REMARK  120  A    between atoms: _260  and  _261
REMARK  121  A    between atoms: _263  and  _265
REMARK  122  A    between atoms: _265  and  _266
REMARK  123  A    between atoms: _265  and  _268
REMARK  124  A    between atoms: _268  and  _269
REMARK  125  A    between atoms: _269  and  _270
REMARK  126  A    between atoms: _270  and  _271
REMARK  127  A    between atoms: _280  and  _282
REMARK  128  A    between atoms: _282  and  _283
REMARK  129  A    between atoms: _282  and  _285
REMARK  130  A    between atoms: _285  and  _286
REMARK  131  A    between atoms: _289  and  _291
REMARK  132  A    between atoms: _291  and  _292
REMARK  133  A    between atoms: _291  and  _294
REMARK  134  A    between atoms: _294  and  _295
REMARK  135  A    between atoms: _301  and  _303
REMARK  136  A    between atoms: _303  and  _304
REMARK  137  A    between atoms: _303  and  _306
REMARK  138  A    between atoms: _306  and  _307
REMARK  139  A    between atoms: _307  and  _308
REMARK  140  A    between atoms: _310  and  _312
REMARK  141  A    between atoms: _312  and  _313
REMARK  142  A    between atoms: _312  and  _315
REMARK  143  A    between atoms: _315  and  _316
REMARK  144  A    between atoms: _322  and  _324
REMARK  145  A    between atoms: _324  and  _325
REMARK  146  A    between atoms: _324  and  _327
REMARK  147  A    between atoms: _327  and  _328
REMARK  148  A    between atoms: _330  and  _332
REMARK  149  A    between atoms: _332  and  _333
REMARK  150  A    between atoms: _332  and  _335
REMARK  151  A    between atoms: _335  and  _336
REMARK  152  A    between atoms: _339  and  _341
REMARK  153  A    between atoms: _341  and  _342
REMARK  154  A    between atoms: _341  and  _344
REMARK  155  A    between atoms: _344  and  _345
REMARK  156  A    between atoms: _351  and  _353
REMARK  157  A    between atoms: _353  and  _354
REMARK  158  A    between atoms: _353  and  _356
REMARK  159  A    between atoms: _356  and  _357
REMARK  160  A    between atoms: _360  and  _362
REMARK  161  A    between atoms: _362  and  _363
REMARK  162  A    between atoms: _362  and  _365
REMARK  163  A    between atoms: _365  and  _366
REMARK  164  A    between atoms: _372  and  _374
REMARK  165  A    between atoms: _374  and  _375
REMARK  166  A    between atoms: _374  and  _377
REMARK  167  A    between atoms: _377  and  _378
REMARK  168  A    between atoms: _381  and  _383
REMARK  169  A    between atoms: _383  and  _384
REMARK  170  A    between atoms: _383  and  _386
REMARK  171  A    between atoms: _386  and  _387
REMARK  172  A    between atoms: _387  and  _388
REMARK  173  A    between atoms: _388  and  _389
REMARK  174  A    between atoms: _389  and  ZN_411
REMARK  175  A    between atoms: _391  and  _393
REMARK  176  A    between atoms: _393  and  _394
REMARK  177  A    between atoms: _393  and  _396
REMARK  178  A    between atoms: _396  and  _397
REMARK  179  A    between atoms: _400  and  _402
REMARK  180  A    between atoms: _402  and  _403
REMARK  181  A    between atoms: _402  and  _405
REMARK  182  A    between atoms: _405  and  _406
REMARK                            x       y       z     vdW  Elec       q    Type
REMARK                         _______ _______ _______ _____ _____    ______ ____
ROOT
ATOM      1  NE  ARG A   1      47.091  39.293  52.011  0.00  0.00    -0.265 N 
ATOM      2  CZ  ARG A   1      47.115  38.823  53.261  0.00  0.00    +0.342 C 
ATOM      3  NH2 ARG A   1      46.837  39.638  54.265  0.00  0.00    -0.292 N 
ATOM      4 HH21 ARG A   1      46.853  39.283  55.242  0.00  0.00    +0.255 HD
ATOM      5 HH22 ARG A   1      46.603  40.634  54.077  0.00  0.00    +0.255 HD
ATOM      6  NH1 ARG A   1      47.378  37.532  53.501  0.00  0.00    -0.292 N 
ATOM      7 HH11 ARG A   1      47.394  37.178  54.479  0.00  0.00    +0.255 HD
ATOM      8 HH12 ARG A   1      47.566  36.884  52.710  0.00  0.00    +0.255 HD
ATOM      9  HE  ARG A   1      46.889  40.303  51.871  0.00  0.00    +0.259 HD
ENDROOT
BRANCH   1  10
ATOM     10  CD  ARG A   1      47.332  38.472  50.834  0.00  0.00    +0.174 C 
BRANCH  10  11
ATOM     11  CG  ARG A   1      47.128  39.236  49.558  0.00  0.00    +0.045 C 
BRANCH  11  12
ATOM     12  CB  ARG A   1      45.780  39.910  49.528  0.00  0.00    +0.029 C 
BRANCH  12  13
ATOM     13  CA  ARG A   1      45.346  40.246  48.109  0.00  0.00    +0.133 C 
BRANCH  13  14
ATOM     14  N   ARG A   1      46.297  41.181  47.509  0.00  0.00    -0.239 NA
ATOM     15  H   ARG A   1      46.874  41.796  48.117  0.00  0.00    +0.142 HD
ENDBRANCH  13  14
BRANCH  13  16
ATOM     16  C   ARG A   1      43.915  40.711  48.145  0.00  0.00    +0.224 C 
ATOM     17  O   ARG A   1      43.650  41.879  48.107  0.00  0.00    -0.287 OA
ENDBRANCH  13  16
ENDBRANCH  12  13
ENDBRANCH  11  12
ENDBRANCH  10  11
ENDBRANCH   1  10
TORSDOF 6
REMARK  Name = ../refined-set-2016/2za0/2za0_pocket.pdb
REMARK  182 active torsions:
REMARK  status: ('A' for Active; 'I' for Inactive)
REMARK    1  A    between atoms: _1  and  _3
REMARK    2  A    between atoms: _3  and  _4
REMARK    3  A    between atoms: _3  and  _6
REMARK    4  A    between atoms: _6  and  _7
REMARK    5  A    between atoms: _7  and  _8
REMARK    6  A    between atoms: _8  and  _9
REMARK    7  A    between atoms: _18  and  _20
REMARK    8  A    between atoms: _20  and  _21
REMARK    9  A    between atoms: _20  and  _23
REMARK   10  A    between atoms: _23  and  _24
REMARK   11  A    between atoms: _28  and  ZN_411
REMARK   12  A    between atoms: _29  and  _31
REMARK   13  A    between atoms: _31  and  _32
REMARK   14  A    between atoms: _31  and  _34
REMARK   15  A    between atoms: _34  and  _35
REMARK   16  A    between atoms: _38  and  _40
REMARK   17  A    between atoms: _40  and  _41
REMARK   18  A    between atoms: _43  and  _45
REMARK   19  A    between atoms: _45  and  _46
REMARK   20  A    between atoms: _45  and  _48
REMARK   21  A    between atoms: _48  and  _49
REMARK   22  A    between atoms: _52  and  _54
REMARK   23  A    between atoms: _54  and  _55
REMARK   24  A    between atoms: _54  and  _57
REMARK   25  A    between atoms: _60  and  _62
REMARK   26  A    between atoms: _62  and  _63
REMARK   27  A    between atoms: _62  and  _65
REMARK   28  A    between atoms: _65  and  _66
REMARK   29  A    between atoms: _66  and  _67
REMARK   30  A    between atoms: _67  and  _68
REMARK   31  A    between atoms: _68  and  _69
REMARK   32  A    between atoms: _73  and  _75
REMARK   33  A    between atoms: _75  and  _76
REMARK   34  A    between atoms: _75  and  _78
REMARK   35  A    between atoms: _78  and  _79
REMARK   36  A    between atoms: _82  and  _84
REMARK   37  A    between atoms: _84  and  _85
REMARK   38  A    between atoms: _87  and  _89
REMARK   39  A    between atoms: _89  and  _90
REMARK   40  A    between atoms: _89  and  _92
REMARK   41  A    between atoms: _92  and  _93
REMARK   42  A    between atoms: _93  and  _94
REMARK   43  A    between atoms: _94  and  _95
REMARK   44  A    between atoms: _95  and  _96
REMARK   45  A    between atoms: _100  and  _102
REMARK   46  A    between atoms: _102  and  _103
REMARK   47  A    between atoms: _102  and  _105
REMARK   48  A    between atoms: _105  and  _106
REMARK   49  A    between atoms: _106  and  _107
REMARK   50  A    between atoms: _109  and  _111
REMARK   51  A    between atoms: _111  and  _112
REMARK   52  A    between atoms: _111  and  _114
REMARK   53  A    between atoms: _114  and  _115
REMARK   54  A    between atoms: _115  and  _116
REMARK   55  A    between atoms: _116  and  _117
REMARK   56  A    between atoms: _117  and  _118
REMARK   57  A    between atoms: _122  and  _124
REMARK   58  A    between atoms: _124  and  _125
REMARK   59  A    between atoms: _124  and  _127
REMARK   60  A    between atoms: _127  and  _128
REMARK   61  A    between atoms: _131  and  _133
REMARK   62  A    between atoms: _133  and  _134
REMARK   63  A    between atoms: _137  and  _139
REMARK   64  A    between atoms: _139  and  _140
REMARK   65  A    between atoms: _139  and  _142
REMARK   66  A    between atoms: _142  and  _143
REMARK   67  A    between atoms: _149  and  _151
REMARK   68  A    between atoms: _151  and  _152
REMARK   69  A    between atoms: _151  and  _154
REMARK   70  A    between atoms: _154  and  _155
REMARK   71  A    between atoms: _165  and  _167
REMARK   72  A    between atoms: _167  and  _168
REMARK   73  A    between atoms: _167  and  _170
REMARK   74  A    between atoms: _170  and  _171
REMARK   75  A    between atoms: _171  and  _172
REMARK   76  A    between atoms: _172  and  _173
REMARK   77  A    between atoms: _173  and  ZN_411
REMARK   78  A    between atoms: _175  and  _177
REMARK   79  A    between atoms: _177  and  _178
REMARK   80  A    between atoms: _177  and  _180
REMARK   81  A    between atoms: _180  and  _181
REMARK   82  A    between atoms: _184  and  _186
REMARK   83  A    between atoms: _186  and  _187
REMARK   84  A    between atoms: _186  and  _189
REMARK   85  A    between atoms: _189  and  _190
REMARK   86  A    between atoms: _193  and  _195
REMARK   87  A    between atoms: _195  and  _196
REMARK   88  A    between atoms: _195  and  _198
REMARK   89  A    between atoms: _198  and  _199
REMARK   90  A    between atoms: _199  and  _200
REMARK   91  A    between atoms: _200  and  _201
REMARK   92  A    between atoms: _201  and  _202
REMARK   93  A    between atoms: _206  and  _208
REMARK   94  A    between atoms: _208  and  _209
REMARK   95  A    between atoms: _208  and  _211
REMARK   96  A    between atoms: _211  and  _212
REMARK   97  A    between atoms: _215  and  _217
REMARK   98  A    between atoms: _217  and  _218
REMARK   99  A    between atoms: _221  and  _223
REMARK  100  A    between atoms: _223  and  _224
REMARK  101  A    between atoms: _223  and  _226
REMARK  102  A    between atoms: _226  and  _227
REMARK  103  A    between atoms: _230  and  _232
REMARK  104  A    between atoms: _232  and  _233
REMARK  105  A    between atoms: _232  and  _235
REMARK  106  A    between atoms: _235  and  _236
REMARK  107  A    between atoms: _236  and  _237
REMARK  108  A    between atoms: _242  and  _244
REMARK  109  A    between atoms: _244  and  _245
REMARK  110  A    between atoms: _244  and  _247
REMARK  111  A    between atoms: _247  and  _248
REMARK  112  A    between atoms: _248  and  _249
REMARK  113  A    between atoms: _249  and  _250
REMARK  114  A    between atoms: _249  and  _251
REMARK  115  A    between atoms: _250  and  ZN_411
REMARK  116  A    between atoms: _254  and  _256
REMARK  117  A    between atoms: _256  and  _257
REMARK  118  A    between atoms: _256  and  _259
REMARK  119  A    between atoms: _259  and  _260
REMARK  120  A    between atoms: _260  and  _261
REMARK  121  A    between atoms: _263  and  _265
REMARK  122  A    between atoms: _265  and  _266
REMARK  123  A    between atoms: _265  and  _268
REMARK  124  A    between atoms: _268  and  _269
REMARK  125  A    between atoms: _269  and  _270
REMARK  126  A    between atoms: _270  and  _271
REMARK  127  A    between atoms: _280  and  _282
REMARK  128  A    between atoms: _282  and  _283
REMARK  129  A    between atoms: _282  and  _285
REMARK  130  A    between atoms: _285  and  _286
REMARK  131  A    between atoms: _289  and  _291
REMARK  132  A    between atoms: _291  and  _292
REMARK  133  A    between atoms: _291  and  _294
REMARK  134  A    between atoms: _294  and  _295
REMARK  135  A    between atoms: _301  and  _303
REMARK  136  A    between atoms: _303  and  _304
REMARK  137  A    between atoms: _303  and  _306
REMARK  138  A    between atoms: _306  and  _307
REMARK  139  A    between atoms: _307  and  _308
REMARK  140  A    between atoms: _310  and  _312
REMARK  141  A    between atoms: _312  and  _313
REMARK  142  A    between atoms: _312  and  _315
REMARK  143  A    between atoms: _315  and  _316
REMARK  144  A    between atoms: _322  and  _324
REMARK  145  A    between atoms: _324  and  _325
REMARK  146  A    between atoms: _324  and  _327
REMARK  147  A    between atoms: _327  and  _328
REMARK  148  A    between atoms: _330  and  _332
REMARK  149  A    between atoms: _332  and  _333
REMARK  150  A    between atoms: _332  and  _335
REMARK  151  A    between atoms: _335  and  _336
REMARK  152  A    between atoms: _339  and  _341
REMARK  153  A    between atoms: _341  and  _342
REMARK  154  A    between atoms: _341  and  _344
REMARK  155  A    between atoms: _344  and  _345
REMARK  156  A    between atoms: _351  and  _353
REMARK  157  A    between atoms: _353  and  _354
REMARK  158  A    between atoms: _353  and  _356
REMARK  159  A    between atoms: _356  and  _357
REMARK  160  A    between atoms: _360  and  _362
REMARK  161  A    between atoms: _362  and  _363
REMARK  162  A    between atoms: _362  and  _365
REMARK  163  A    between atoms: _365  and  _366
REMARK  164  A    between atoms: _372  and  _374
REMARK  165  A    between atoms: _374  and  _375
REMARK  166  A    between atoms: _374  and  _377
REMARK  167  A    between atoms: _377  and  _378
REMARK  168  A    between atoms: _381  and  _383
REMARK  169  A    between atoms: _383  and  _384
REMARK  170  A    between atoms: _383  and  _386
REMARK  171  A    between atoms: _386  and  _387
REMARK  172  A    between atoms: _387  and  _388
REMARK  173  A    between atoms: _388  and  _389
REMARK  174  A    between atoms: _389  and  ZN_411
REMARK  175  A    between atoms: _391  and  _393
REMARK  176  A    between atoms: _393  and  _394
REMARK  177  A    between atoms: _393  and  _396
REMARK  178  A    between atoms: _396  and  _397
REMARK  179  A    between atoms: _400  and  _402
REMARK  180  A    between atoms: _402  and  _403
REMARK  181  A    between atoms: _402  and  _405
REMARK  182  A    between atoms: _405  and  _406
REMARK                            x       y       z     vdW  Elec       q    Type
REMARK                         _______ _______ _______ _____ _____    ______ ____
ROOT
ATOM      1 ZN   UNK A   1      37.723  29.600  55.580  0.00  0.00    +0.000 Zn
ENDROOT
BRANCH   1   5
ATOM      2  C   UNK A   1      39.579  30.102  51.671  0.00  0.00    +0.000 A 
ATOM      3  N   UNK A   1      40.323  30.863  52.550  0.00  0.00    +0.000 NA
ATOM      4  C   UNK A   1      39.732  30.878  53.735  0.00  0.00    +0.000 A 
ATOM      5  N   UNK A   1      38.633  30.154  53.656  0.00  0.00    +0.000 N 
ATOM      6  C   UNK A   1      38.509  29.662  52.375  0.00  0.00    +0.000 A 
BRANCH   2   7
ATOM      7  C   UNK A   1      39.990  29.877  50.233  0.00  0.00    +0.000 C 
BRANCH   7   8
ATOM      8  C   UNK A   1      39.245  30.779  49.189  0.00  0.00    +0.000 C 
BRANCH   8   9
ATOM      9  C   UNK A   1      37.771  30.427  49.214  0.00  0.00    +0.000 C 
ATOM     10  O   UNK A   1      36.948  31.229  49.639  0.00  0.00    +0.000 OA
ATOM     11  N   UNK A   2      37.443  29.272  48.656  0.00  0.00    +0.000 N 
ATOM     12  H   UNK A   2      38.143  28.747  48.094  0.00  0.00    +0.000 HD
BRANCH  11  13
ATOM     13  C   UNK A   2      36.093  28.736  48.832  0.00  0.00    +0.000 C 
BRANCH  13  14
ATOM     14  C   UNK A   2      36.361  27.569  49.796  0.00  0.00    +0.000 C 
ATOM     15  N   GLY A   3      35.309  27.030  50.400  0.00  0.00    +0.000 N 
ATOM     16  H   GLY A   3      34.349  27.372  50.192  0.00  0.00    +0.000 HD
ATOM     17  O   UNK A   2      37.518  27.178  50.009  0.00  0.00    +0.000 OA
BRANCH  15  18
ATOM     18  CA  GLY A   3      35.519  25.954  51.357  0.00  0.00    +0.000 C 
BRANCH  18  19
ATOM     19  C   GLY A   3      34.426  24.919  51.250  0.00  0.00    +0.000 C 
ATOM     20  N   ILE A   4      34.805  23.667  51.434  0.00  0.00    +0.000 N 
ATOM     21  H   ILE A   4      35.803  23.478  51.660  0.00  0.00    +0.000 HD
ATOM     22  O   GLY A   3      33.283  25.241  51.052  0.00  0.00    +0.000 OA
BRANCH  20  23
ATOM     23  CA  ILE A   4      33.887  22.536  51.335  0.00  0.00    +0.000 C 
BRANCH  23  24
ATOM     24  C   ILE A   4      33.870  21.799  52.651  0.00  0.00    +0.000 C 
ATOM     25  O   ILE A   4      34.923  21.494  53.215  0.00  0.00    +0.000 OA
ENDBRANCH  23  24
BRANCH  23  26
ATOM     26  CB  ILE A   4      34.375  21.637  50.208  0.00  0.00    +0.000 C 
ATOM     27  CG2 ILE A   4      33.537  20.315  50.134  0.00  0.00    +0.000 C 
BRANCH  26  28
ATOM     28  CG1 ILE A   4      34.215  22.442  48.910  0.00  0.00    +0.000 C 
ATOM     29  CD1 ILE A   4      34.644  21.721  47.678  0.00  0.00    +0.000 C 
ENDBRANCH  26  28
ENDBRANCH  23  26
ENDBRANCH  20  23
ENDBRANCH  18  19
ENDBRANCH  15  18
ENDBRANCH  13  14
BRANCH  13  30
ATOM     30  C   UNK A   2      35.438  28.244  47.540  0.00  0.00    +0.000 C 
ATOM     31  C   UNK A   2      35.066  29.421  46.670  0.00  0.00    +0.000 C 
BRANCH  30  32
ATOM     32  C   UNK A   2      36.351  27.293  46.793  0.00  0.00    +0.000 C 
ATOM     33  C   UNK A   2      35.604  26.620  45.621  0.00  0.00    +0.000 C 
ENDBRANCH  30  32
ENDBRANCH  13  30
ENDBRANCH  11  13
ENDBRANCH   8   9
BRANCH   8  34
ATOM     34  N   UNK A   1      39.462  32.179  49.530  0.00  0.00    +0.000 NA
ATOM     35  H   UNK A   1      38.677  32.775  49.861  0.00  0.00    +0.000 HD
ENDBRANCH   8  34
ENDBRANCH   7   8
ENDBRANCH   2   7
ENDBRANCH   1   5
BRANCH   1  36
ATOM     36  O   UNK A   1      36.410  31.164  55.794  0.00  0.00    +0.000 OA
BRANCH  36  37
ATOM     37  C   UNK A   1      36.670  32.166  56.473  0.00  0.00    +0.000 C 
ATOM     38  O   UNK A   1      37.782  32.357  57.004  0.00  0.00    +0.000 OA
BRANCH  37  39
ATOM     39  C   UNK A   1      35.595  33.195  56.652  0.00  0.00    +0.000 C 
BRANCH  39  40
ATOM     40  C   UNK A   1      34.507  33.066  55.593  0.00  0.00    +0.000 C 
BRANCH  40  41
ATOM     41  C   UNK A   1      33.515  34.230  55.626  0.00  0.00    +0.000 C 
BRANCH  41  42
ATOM     42  C   UNK A   1      34.270  35.535  55.367  0.00  0.00    +0.000 C 
ATOM     43  O   UNK A   1      34.924  35.688  54.318  0.00  0.00    +0.000 OA
ENDBRANCH  41  42
BRANCH  41  44
ATOM     44  N   UNK A   1      32.531  34.095  54.565  0.00  0.00    +0.000 NA
ATOM     45  H   UNK A   1      32.847  33.770  53.629  0.00  0.00    +0.000 HD
ENDBRANCH  41  44
ENDBRANCH  40  41
ENDBRANCH  39  40
ENDBRANCH  37  39
ENDBRANCH  36  37
ENDBRANCH   1  36
BRANCH   1  46
ATOM     46  O   UNK A   1      38.989  27.820  55.332  0.00  0.00    +0.000 OA
BRANCH  46  47
ATOM     47  C   UNK A   1      38.605  26.665  55.614  0.00  0.00    +0.000 C 
ATOM     48  O   UNK A   1      37.866  26.406  56.570  0.00  0.00    +0.000 OA
BRANCH  47  49
ATOM     49  C   UNK A   1      39.078  25.532  54.719  0.00  0.00    +0.000 C 
BRANCH  49  50
ATOM     50  C   UNK A   1      38.859  25.857  53.282  0.00  0.00    +0.000 C 
BRANCH  50  51
ATOM     51  C   UNK A   1      39.430  24.829  52.345  0.00  0.00    +0.000 C 
BRANCH  51  52
ATOM     52  C   UNK A   1      38.628  23.522  52.440  0.00  0.00    +0.000 C 
ATOM     53  N   UNK A   2      39.144  22.535  53.188  0.00  0.00    +0.000 N 
ATOM     54  H   UNK A   2      40.065  22.684  53.647  0.00  0.00    +0.000 HD
ATOM     55  O   UNK A   1      37.599  23.405  51.793  0.00  0.00    +0.000 OA
BRANCH  53  56
ATOM     56  C   UNK A   2      38.457  21.253  53.383  0.00  0.00    +0.000 C 
BRANCH  56  57
ATOM     57  C   UNK A   2      38.287  21.171  54.897  0.00  0.00    +0.000 C 
ATOM     58  O   UNK A   2      39.270  21.086  55.624  0.00  0.00    +0.000 OA
ATOM     59  N   GLY A   3      37.037  21.188  55.378  0.00  0.00    +0.000 N 
ATOM     60  H   GLY A   3      36.227  21.180  54.726  0.00  0.00    +0.000 HD
BRANCH  59  61
ATOM     61  CA  GLY A   3      36.818  21.218  56.813  0.00  0.00    +0.000 C 
BRANCH  61  62
ATOM     62  C   GLY A   3      35.725  20.264  57.250  0.00  0.00    +0.000 C 
ATOM     63  O   GLY A   3      34.901  19.875  56.448  0.00  0.00    +0.000 OA
ENDBRANCH  61  62
BRANCH  61  64
ATOM     64  CB  GLY A   3      36.473  22.670  57.246  0.00  0.00    +0.000 C 
BRANCH  64  65
ATOM     65  CG  GLY A   3      35.218  23.569  57.073  0.00  0.00    +0.000 C 
ATOM     66  CD2 GLY A   3      33.960  22.838  57.494  0.00  0.00    +0.000 C 
ATOM     67  CD1 GLY A   3      35.142  24.230  55.696  0.00  0.00    +0.000 C 
ENDBRANCH  64  65
ENDBRANCH  61  64
ENDBRANCH  59  61
ENDBRANCH  56  57
BRANCH  56  68
ATOM     68  C   UNK A   2      39.346  20.077  52.896  0.00  0.00    +0.000 C 
ATOM     69  C   UNK A   2      38.601  18.763  53.120  0.00  0.00    +0.000 C 
BRANCH  68  70
ATOM     70  C   UNK A   2      39.705  20.282  51.416  0.00  0.00    +0.000 C 
ATOM     71  C   UNK A   2      38.513  20.214  50.439  0.00  0.00    +0.000 C 
ENDBRANCH  68  70
ENDBRANCH  56  68
ENDBRANCH  53  56
ENDBRANCH  51  52
BRANCH  51  72
ATOM     72  N   UNK A   1      39.325  25.348  50.989  0.00  0.00    +0.000 NA
ATOM     73  H   UNK A   1      38.651  26.112  50.779  0.00  0.00    +0.000 HD
ENDBRANCH  51  72
ENDBRANCH  50  51
ENDBRANCH  49  50
ENDBRANCH  47  49
ENDBRANCH  46  47
ENDBRANCH   1  46
BRANCH   1  74
ATOM     74  O   UNK A   2      36.141  28.796  54.410  0.00  0.00    +0.000 OA
BRANCH  74  75
ATOM     75  C   UNK A   2      34.983  28.475  54.663  0.00  0.00    +0.000 C 
BRANCH  75  76
ATOM     76  N   UNK A   2      34.573  28.199  55.898  0.00  0.00    +0.000 NA
ATOM     77  H   UNK A   2      35.243  28.251  56.692  0.00  0.00    +0.000 HD
ATOM     78  H   UNK A   2      33.583  27.931  56.069  0.00  0.00    +0.000 HD
ENDBRANCH  75  76
BRANCH  75  79
ATOM     79  C   UNK A   2      33.964  28.343  53.541  0.00  0.00    +0.000 C 
BRANCH  79  80
ATOM     80  C   UNK A   2      32.771  29.321  53.582  0.00  0.00    +0.000 C 
BRANCH  80  81
ATOM     81  C   UNK A   2      31.890  29.190  52.320  0.00  0.00    +0.000 C 
BRANCH  81  82
ATOM     82  N   UNK A   2      31.486  27.801  52.154  0.00  0.00    +0.000 N 
ATOM     83  C   UNK A   1      30.427  27.366  52.811  0.00  0.00    +0.000 C 
ATOM     84  O   UNK A   1      29.719  28.123  53.493  0.00  0.00    +0.000 OA
ATOM     85  H   UNK A   2      32.021  27.164  51.530  0.00  0.00    +0.000 HD
BRANCH  83  86
ATOM     86  C   UNK A   1      30.111  25.872  52.692  0.00  0.00    +0.000 C 
BRANCH  86  87
ATOM     87  N   UNK A   1      30.430  25.155  51.467  0.00  0.00    +0.000 NA
ATOM     88  H   UNK A   1      31.343  24.661  51.401  0.00  0.00    +0.000 HD
ENDBRANCH  86  87
BRANCH  86  89
ATOM     89  C   UNK A   1      30.798  25.112  53.834  0.00  0.00    +0.000 C 
BRANCH  89  90
ATOM     90  C   UNK A   1      30.292  25.430  55.237  0.00  0.00    +0.000 C 
BRANCH  90  91
ATOM     91  C   UNK A   1      30.903  26.668  55.846  0.00  0.00    +0.000 C 
ATOM     92  N   UNK A   1      30.123  27.365  56.670  0.00  0.00    +0.000 N 
ATOM     93  H   UNK A   1      30.497  28.207  57.152  0.00  0.00    +0.000 HD
ATOM     94  H   UNK A   1      29.140  27.067  56.831  0.00  0.00    +0.000 HD
ATOM     95  O   UNK A   1      32.071  26.981  55.624  0.00  0.00    +0.000 OA
ENDBRANCH  90  91
ENDBRANCH  89  90
ENDBRANCH  86  89
ENDBRANCH  83  86
ENDBRANCH  81  82
BRANCH  81  96
ATOM     96  C   UNK A   2      32.676  29.789  51.199  0.00  0.00    +0.000 C 
ATOM     97  O   UNK A   2      33.324  29.078  50.425  0.00  0.00    +0.000 OA
ENDBRANCH  81  96
ENDBRANCH  80  81
ENDBRANCH  79  80
ENDBRANCH  75  79
ENDBRANCH  74  75
ENDBRANCH   1  74
TORSDOF 50
REMARK  Name = ../refined-set-2016/2za0/2za0_pocket.pdb
REMARK  182 active torsions:
REMARK  status: ('A' for Active; 'I' for Inactive)
REMARK    1  A    between atoms: _1  and  _3
REMARK    2  A    between atoms: _3  and  _4
REMARK    3  A    between atoms: _3  and  _6
REMARK    4  A    between atoms: _6  and  _7
REMARK    5  A    between atoms: _7  and  _8
REMARK    6  A    between atoms: _8  and  _9
REMARK    7  A    between atoms: _18  and  _20
REMARK    8  A    between atoms: _20  and  _21
REMARK    9  A    between atoms: _20  and  _23
REMARK   10  A    between atoms: _23  and  _24
REMARK   11  A    between atoms: _28  and  ZN_411
REMARK   12  A    between atoms: _29  and  _31
REMARK   13  A    between atoms: _31  and  _32
REMARK   14  A    between atoms: _31  and  _34
REMARK   15  A    between atoms: _34  and  _35
REMARK   16  A    between atoms: _38  and  _40
REMARK   17  A    between atoms: _40  and  _41
REMARK   18  A    between atoms: _43  and  _45
REMARK   19  A    between atoms: _45  and  _46
REMARK   20  A    between atoms: _45  and  _48
REMARK   21  A    between atoms: _48  and  _49
REMARK   22  A    between atoms: _52  and  _54
REMARK   23  A    between atoms: _54  and  _55
REMARK   24  A    between atoms: _54  and  _57
REMARK   25  A    between atoms: _60  and  _62
REMARK   26  A    between atoms: _62  and  _63
REMARK   27  A    between atoms: _62  and  _65
REMARK   28  A    between atoms: _65  and  _66
REMARK   29  A    between atoms: _66  and  _67
REMARK   30  A    between atoms: _67  and  _68
REMARK   31  A    between atoms: _68  and  _69
REMARK   32  A    between atoms: _73  and  _75
REMARK   33  A    between atoms: _75  and  _76
REMARK   34  A    between atoms: _75  and  _78
REMARK   35  A    between atoms: _78  and  _79
REMARK   36  A    between atoms: _82  and  _84
REMARK   37  A    between atoms: _84  and  _85
REMARK   38  A    between atoms: _87  and  _89
REMARK   39  A    between atoms: _89  and  _90
REMARK   40  A    between atoms: _89  and  _92
REMARK   41  A    between atoms: _92  and  _93
REMARK   42  A    between atoms: _93  and  _94
REMARK   43  A    between atoms: _94  and  _95
REMARK   44  A    between atoms: _95  and  _96
REMARK   45  A    between atoms: _100  and  _102
REMARK   46  A    between atoms: _102  and  _103
REMARK   47  A    between atoms: _102  and  _105
REMARK   48  A    between atoms: _105  and  _106
REMARK   49  A    between atoms: _106  and  _107
REMARK   50  A    between atoms: _109  and  _111
REMARK   51  A    between atoms: _111  and  _112
REMARK   52  A    between atoms: _111  and  _114
REMARK   53  A    between atoms: _114  and  _115
REMARK   54  A    between atoms: _115  and  _116
REMARK   55  A    between atoms: _116  and  _117
REMARK   56  A    between atoms: _117  and  _118
REMARK   57  A    between atoms: _122  and  _124
REMARK   58  A    between atoms: _124  and  _125
REMARK   59  A    between atoms: _124  and  _127
REMARK   60  A    between atoms: _127  and  _128
REMARK   61  A    between atoms: _131  and  _133
REMARK   62  A    between atoms: _133  and  _134
REMARK   63  A    between atoms: _137  and  _139
REMARK   64  A    between atoms: _139  and  _140
REMARK   65  A    between atoms: _139  and  _142
REMARK   66  A    between atoms: _142  and  _143
REMARK   67  A    between atoms: _149  and  _151
REMARK   68  A    between atoms: _151  and  _152
REMARK   69  A    between atoms: _151  and  _154
REMARK   70  A    between atoms: _154  and  _155
REMARK   71  A    between atoms: _165  and  _167
REMARK   72  A    between atoms: _167  and  _168
REMARK   73  A    between atoms: _167  and  _170
REMARK   74  A    between atoms: _170  and  _171
REMARK   75  A    between atoms: _171  and  _172
REMARK   76  A    between atoms: _172  and  _173
REMARK   77  A    between atoms: _173  and  ZN_411
REMARK   78  A    between atoms: _175  and  _177
REMARK   79  A    between atoms: _177  and  _178
REMARK   80  A    between atoms: _177  and  _180
REMARK   81  A    between atoms: _180  and  _181
REMARK   82  A    between atoms: _184  and  _186
REMARK   83  A    between atoms: _186  and  _187
REMARK   84  A    between atoms: _186  and  _189
REMARK   85  A    between atoms: _189  and  _190
REMARK   86  A    between atoms: _193  and  _195
REMARK   87  A    between atoms: _195  and  _196
REMARK   88  A    between atoms: _195  and  _198
REMARK   89  A    between atoms: _198  and  _199
REMARK   90  A    between atoms: _199  and  _200
REMARK   91  A    between atoms: _200  and  _201
REMARK   92  A    between atoms: _201  and  _202
REMARK   93  A    between atoms: _206  and  _208
REMARK   94  A    between atoms: _208  and  _209
REMARK   95  A    between atoms: _208  and  _211
REMARK   96  A    between atoms: _211  and  _212
REMARK   97  A    between atoms: _215  and  _217
REMARK   98  A    between atoms: _217  and  _218
REMARK   99  A    between atoms: _221  and  _223
REMARK  100  A    between atoms: _223  and  _224
REMARK  101  A    between atoms: _223  and  _226
REMARK  102  A    between atoms: _226  and  _227
REMARK  103  A    between atoms: _230  and  _232
REMARK  104  A    between atoms: _232  and  _233
REMARK  105  A    between atoms: _232  and  _235
REMARK  106  A    between atoms: _235  and  _236
REMARK  107  A    between atoms: _236  and  _237
REMARK  108  A    between atoms: _242  and  _244
REMARK  109  A    between atoms: _244  and  _245
REMARK  110  A    between atoms: _244  and  _247
REMARK  111  A    between atoms: _247  and  _248
REMARK  112  A    between atoms: _248  and  _249
REMARK  113  A    between atoms: _249  and  _250
REMARK  114  A    between atoms: _249  and  _251
REMARK  115  A    between atoms: _250  and  ZN_411
REMARK  116  A    between atoms: _254  and  _256
REMARK  117  A    between atoms: _256  and  _257
REMARK  118  A    between atoms: _256  and  _259
REMARK  119  A    between atoms: _259  and  _260
REMARK  120  A    between atoms: _260  and  _261
REMARK  121  A    between atoms: _263  and  _265
REMARK  122  A    between atoms: _265  and  _266
REMARK  123  A    between atoms: _265  and  _268
REMARK  124  A    between atoms: _268  and  _269
REMARK  125  A    between atoms: _269  and  _270
REMARK  126  A    between atoms: _270  and  _271
REMARK  127  A    between atoms: _280  and  _282
REMARK  128  A    between atoms: _282  and  _283
REMARK  129  A    between atoms: _282  and  _285
REMARK  130  A    between atoms: _285  and  _286
REMARK  131  A    between atoms: _289  and  _291
REMARK  132  A    between atoms: _291  and  _292
REMARK  133  A    between atoms: _291  and  _294
REMARK  134  A    between atoms: _294  and  _295
REMARK  135  A    between atoms: _301  and  _303
REMARK  136  A    between atoms: _303  and  _304
REMARK  137  A    between atoms: _303  and  _306
REMARK  138  A    between atoms: _306  and  _307
REMARK  139  A    between atoms: _307  and  _308
REMARK  140  A    between atoms: _310  and  _312
REMARK  141  A    between atoms: _312  and  _313
REMARK  142  A    between atoms: _312  and  _315
REMARK  143  A    between atoms: _315  and  _316
REMARK  144  A    between atoms: _322  and  _324
REMARK  145  A    between atoms: _324  and  _325
REMARK  146  A    between atoms: _324  and  _327
REMARK  147  A    between atoms: _327  and  _328
REMARK  148  A    between atoms: _330  and  _332
REMARK  149  A    between atoms: _332  and  _333
REMARK  150  A    between atoms: _332  and  _335
REMARK  151  A    between atoms: _335  and  _336
REMARK  152  A    between atoms: _339  and  _341
REMARK  153  A    between atoms: _341  and  _342
REMARK  154  A    between atoms: _341  and  _344
REMARK  155  A    between atoms: _344  and  _345
REMARK  156  A    between atoms: _351  and  _353
REMARK  157  A    between atoms: _353  and  _354
REMARK  158  A    between atoms: _353  and  _356
REMARK  159  A    between atoms: _356  and  _357
REMARK  160  A    between atoms: _360  and  _362
REMARK  161  A    between atoms: _362  and  _363
REMARK  162  A    between atoms: _362  and  _365
REMARK  163  A    between atoms: _365  and  _366
REMARK  164  A    between atoms: _372  and  _374
REMARK  165  A    between atoms: _374  and  _375
REMARK  166  A    between atoms: _374  and  _377
REMARK  167  A    between atoms: _377  and  _378
REMARK  168  A    between atoms: _381  and  _383
REMARK  169  A    between atoms: _383  and  _384
REMARK  170  A    between atoms: _383  and  _386
REMARK  171  A    between atoms: _386  and  _387
REMARK  172  A    between atoms: _387  and  _388
REMARK  173  A    between atoms: _388  and  _389
REMARK  174  A    between atoms: _389  and  ZN_411
REMARK  175  A    between atoms: _391  and  _393
REMARK  176  A    between atoms: _393  and  _394
REMARK  177  A    between atoms: _393  and  _396
REMARK  178  A    between atoms: _396  and  _397
REMARK  179  A    between atoms: _400  and  _402
REMARK  180  A    between atoms: _402  and  _403
REMARK  181  A    between atoms: _402  and  _405
REMARK  182  A    between atoms: _405  and  _406
REMARK                            x       y       z     vdW  Elec       q    Type
REMARK                         _______ _______ _______ _____ _____    ______ ____
ROOT
ATOM      1  CA  LYS A   2      48.210  22.887  53.724  0.00  0.00    +0.137 C 
ENDROOT
BRANCH   1   3
ATOM      2  C   VAL A   1      48.830  24.025  51.652  0.00  0.00    +0.238 C 
ATOM      3  N   LYS A   2      47.970  23.268  52.331  0.00  0.00    -0.298 N 
ATOM      4  H   LYS A   2      47.104  22.938  51.859  0.00  0.00    +0.150 HD
ATOM      5  O   VAL A   1      49.855  24.466  52.166  0.00  0.00    -0.274 OA
BRANCH   2   6
ATOM      6  CA  VAL A   1      48.475  24.315  50.188  0.00  0.00    +0.145 C 
BRANCH   6   7
ATOM      7  CB  VAL A   1      47.396  25.436  50.107  0.00  0.00    +0.025 C 
ATOM      8  CG2 VAL A   1      47.868  26.692  50.817  0.00  0.00    +0.002 C 
ATOM      9  CG1 VAL A   1      47.114  25.746  48.645  0.00  0.00    +0.002 C 
ENDBRANCH   6   7
BRANCH   6  10
ATOM     10  N   VAL A   1      47.960  23.048  49.678  0.00  0.00    -0.238 NA
ATOM     11  H   VAL A   1      46.956  22.821  49.828  0.00  0.00    +0.142 HD
ENDBRANCH   6  10
ENDBRANCH   2   6
ENDBRANCH   1   3
BRANCH   1  12
ATOM     12  C   LYS A   2      47.608  21.518  53.981  0.00  0.00    +0.227 C 
ATOM     13  O   LYS A   2      46.386  21.354  53.876  0.00  0.00    -0.286 OA
ENDBRANCH   1  12
BRANCH   1  14
ATOM     14  CB  LYS A   2      47.574  23.883  54.719  0.00  0.00    +0.028 C 
BRANCH  14  15
ATOM     15  CG  LYS A   2      48.149  23.711  56.138  0.00  0.00    -0.000 C 
BRANCH  15  16
ATOM     16  CD  LYS A   2      47.359  24.455  57.208  0.00  0.00    -0.024 C 
BRANCH  16  17
ATOM     17  CE  LYS A   2      46.188  23.620  57.729  0.00  0.00    -0.086 C 
BRANCH  17  18
ATOM     18  NZ  LYS A   2      46.582  22.485  58.678  0.00  0.00    +0.380 N 
ATOM     19  HZ1 LYS A   2      47.062  22.882  59.511  0.00  0.00    -0.089 HD
ATOM     20  HZ2 LYS A   2      45.728  21.975  58.980  0.00  0.00    -0.089 HD
ATOM     21  HZ3 LYS A   2      47.223  21.830  58.186  0.00  0.00    -0.089 HD
ENDBRANCH  17  18
ENDBRANCH  16  17
ENDBRANCH  15  16
ENDBRANCH  14  15
ENDBRANCH   1  14
TORSDOF 10
REMARK  Name = ../refined-set-2016/2za0/2za0_pocket.pdb
REMARK  182 active torsions:
REMARK  status: ('A' for Active; 'I' for Inactive)
REMARK    1  A    between atoms: _1  and  _3
REMARK    2  A    between atoms: _3  and  _4
REMARK    3  A    between atoms: _3  and  _6
REMARK    4  A    between atoms: _6  and  _7
REMARK    5  A    between atoms: _7  and  _8
REMARK    6  A    between atoms: _8  and  _9
REMARK    7  A    between atoms: _18  and  _20
REMARK    8  A    between atoms: _20  and  _21
REMARK    9  A    between atoms: _20  and  _23
REMARK   10  A    between atoms: _23  and  _24
REMARK   11  A    between atoms: _28  and  ZN_411
REMARK   12  A    between atoms: _29  and  _31
REMARK   13  A    between atoms: _31  and  _32
REMARK   14  A    between atoms: _31  and  _34
REMARK   15  A    between atoms: _34  and  _35
REMARK   16  A    between atoms: _38  and  _40
REMARK   17  A    between atoms: _40  and  _41
REMARK   18  A    between atoms: _43  and  _45
REMARK   19  A    between atoms: _45  and  _46
REMARK   20  A    between atoms: _45  and  _48
REMARK   21  A    between atoms: _48  and  _49
REMARK   22  A    between atoms: _52  and  _54
REMARK   23  A    between atoms: _54  and  _55
REMARK   24  A    between atoms: _54  and  _57
REMARK   25  A    between atoms: _60  and  _62
REMARK   26  A    between atoms: _62  and  _63
REMARK   27  A    between atoms: _62  and  _65
REMARK   28  A    between atoms: _65  and  _66
REMARK   29  A    between atoms: _66  and  _67
REMARK   30  A    between atoms: _67  and  _68
REMARK   31  A    between atoms: _68  and  _69
REMARK   32  A    between atoms: _73  and  _75
REMARK   33  A    between atoms: _75  and  _76
REMARK   34  A    between atoms: _75  and  _78
REMARK   35  A    between atoms: _78  and  _79
REMARK   36  A    between atoms: _82  and  _84
REMARK   37  A    between atoms: _84  and  _85
REMARK   38  A    between atoms: _87  and  _89
REMARK   39  A    between atoms: _89  and  _90
REMARK   40  A    between atoms: _89  and  _92
REMARK   41  A    between atoms: _92  and  _93
REMARK   42  A    between atoms: _93  and  _94
REMARK   43  A    between atoms: _94  and  _95
REMARK   44  A    between atoms: _95  and  _96
REMARK   45  A    between atoms: _100  and  _102
REMARK   46  A    between atoms: _102  and  _103
REMARK   47  A    between atoms: _102  and  _105
REMARK   48  A    between atoms: _105  and  _106
REMARK   49  A    between atoms: _106  and  _107
REMARK   50  A    between atoms: _109  and  _111
REMARK   51  A    between atoms: _111  and  _112
REMARK   52  A    between atoms: _111  and  _114
REMARK   53  A    between atoms: _114  and  _115
REMARK   54  A    between atoms: _115  and  _116
REMARK   55  A    between atoms: _116  and  _117
REMARK   56  A    between atoms: _117  and  _118
REMARK   57  A    between atoms: _122  and  _124
REMARK   58  A    between atoms: _124  and  _125
REMARK   59  A    between atoms: _124  and  _127
REMARK   60  A    between atoms: _127  and  _128
REMARK   61  A    between atoms: _131  and  _133
REMARK   62  A    between atoms: _133  and  _134
REMARK   63  A    between atoms: _137  and  _139
REMARK   64  A    between atoms: _139  and  _140
REMARK   65  A    between atoms: _139  and  _142
REMARK   66  A    between atoms: _142  and  _143
REMARK   67  A    between atoms: _149  and  _151
REMARK   68  A    between atoms: _151  and  _152
REMARK   69  A    between atoms: _151  and  _154
REMARK   70  A    between atoms: _154  and  _155
REMARK   71  A    between atoms: _165  and  _167
REMARK   72  A    between atoms: _167  and  _168
REMARK   73  A    between atoms: _167  and  _170
REMARK   74  A    between atoms: _170  and  _171
REMARK   75  A    between atoms: _171  and  _172
REMARK   76  A    between atoms: _172  and  _173
REMARK   77  A    between atoms: _173  and  ZN_411
REMARK   78  A    between atoms: _175  and  _177
REMARK   79  A    between atoms: _177  and  _178
REMARK   80  A    between atoms: _177  and  _180
REMARK   81  A    between atoms: _180  and  _181
REMARK   82  A    between atoms: _184  and  _186
REMARK   83  A    between atoms: _186  and  _187
REMARK   84  A    between atoms: _186  and  _189
REMARK   85  A    between atoms: _189  and  _190
REMARK   86  A    between atoms: _193  and  _195
REMARK   87  A    between atoms: _195  and  _196
REMARK   88  A    between atoms: _195  and  _198
REMARK   89  A    between atoms: _198  and  _199
REMARK   90  A    between atoms: _199  and  _200
REMARK   91  A    between atoms: _200  and  _201
REMARK   92  A    between atoms: _201  and  _202
REMARK   93  A    between atoms: _206  and  _208
REMARK   94  A    between atoms: _208  and  _209
REMARK   95  A    between atoms: _208  and  _211
REMARK   96  A    between atoms: _211  and  _212
REMARK   97  A    between atoms: _215  and  _217
REMARK   98  A    between atoms: _217  and  _218
REMARK   99  A    between atoms: _221  and  _223
REMARK  100  A    between atoms: _223  and  _224
REMARK  101  A    between atoms: _223  and  _226
REMARK  102  A    between atoms: _226  and  _227
REMARK  103  A    between atoms: _230  and  _232
REMARK  104  A    between atoms: _232  and  _233
REMARK  105  A    between atoms: _232  and  _235
REMARK  106  A    between atoms: _235  and  _236
REMARK  107  A    between atoms: _236  and  _237
REMARK  108  A    between atoms: _242  and  _244
REMARK  109  A    between atoms: _244  and  _245
REMARK  110  A    between atoms: _244  and  _247
REMARK  111  A    between atoms: _247  and  _248
REMARK  112  A    between atoms: _248  and  _249
REMARK  113  A    between atoms: _249  and  _250
REMARK  114  A    between atoms: _249  and  _251
REMARK  115  A    between atoms: _250  and  ZN_411
REMARK  116  A    between atoms: _254  and  _256
REMARK  117  A    between atoms: _256  and  _257
REMARK  118  A    between atoms: _256  and  _259
REMARK  119  A    between atoms: _259  and  _260
REMARK  120  A    between atoms: _260  and  _261
REMARK  121  A    between atoms: _263  and  _265
REMARK  122  A    between atoms: _265  and  _266
REMARK  123  A    between atoms: _265  and  _268
REMARK  124  A    between atoms: _268  and  _269
REMARK  125  A    between atoms: _269  and  _270
REMARK  126  A    between atoms: _270  and  _271
REMARK  127  A    between atoms: _280  and  _282
REMARK  128  A    between atoms: _282  and  _283
REMARK  129  A    between atoms: _282  and  _285
REMARK  130  A    between atoms: _285  and  _286
REMARK  131  A    between atoms: _289  and  _291
REMARK  132  A    between atoms: _291  and  _292
REMARK  133  A    between atoms: _291  and  _294
REMARK  134  A    between atoms: _294  and  _295
REMARK  135  A    between atoms: _301  and  _303
REMARK  136  A    between atoms: _303  and  _304
REMARK  137  A    between atoms: _303  and  _306
REMARK  138  A    between atoms: _306  and  _307
REMARK  139  A    between atoms: _307  and  _308
REMARK  140  A    between atoms: _310  and  _312
REMARK  141  A    between atoms: _312  and  _313
REMARK  142  A    between atoms: _312  and  _315
REMARK  143  A    between atoms: _315  and  _316
REMARK  144  A    between atoms: _322  and  _324
REMARK  145  A    between atoms: _324  and  _325
REMARK  146  A    between atoms: _324  and  _327
REMARK  147  A    between atoms: _327  and  _328
REMARK  148  A    between atoms: _330  and  _332
REMARK  149  A    between atoms: _332  and  _333
REMARK  150  A    between atoms: _332  and  _335
REMARK  151  A    between atoms: _335  and  _336
REMARK  152  A    between atoms: _339  and  _341
REMARK  153  A    between atoms: _341  and  _342
REMARK  154  A    between atoms: _341  and  _344
REMARK  155  A    between atoms: _344  and  _345
REMARK  156  A    between atoms: _351  and  _353
REMARK  157  A    between atoms: _353  and  _354
REMARK  158  A    between atoms: _353  and  _356
REMARK  159  A    between atoms: _356  and  _357
REMARK  160  A    between atoms: _360  and  _362
REMARK  161  A    between atoms: _362  and  _363
REMARK  162  A    between atoms: _362  and  _365
REMARK  163  A    between atoms: _365  and  _366
REMARK  164  A    between atoms: _372  and  _374
REMARK  165  A    between atoms: _374  and  _375
REMARK  166  A    between atoms: _374  and  _377
REMARK  167  A    between atoms: _377  and  _378
REMARK  168  A    between atoms: _381  and  _383
REMARK  169  A    between atoms: _383  and  _384
REMARK  170  A    between atoms: _383  and  _386
REMARK  171  A    between atoms: _386  and  _387
REMARK  172  A    between atoms: _387  and  _388
REMARK  173  A    between atoms: _388  and  _389
REMARK  174  A    between atoms: _389  and  ZN_411
REMARK  175  A    between atoms: _391  and  _393
REMARK  176  A    between atoms: _393  and  _394
REMARK  177  A    between atoms: _393  and  _396
REMARK  178  A    between atoms: _396  and  _397
REMARK  179  A    between atoms: _400  and  _402
REMARK  180  A    between atoms: _402  and  _403
REMARK  181  A    between atoms: _402  and  _405
REMARK  182  A    between atoms: _405  and  _406
REMARK                            x       y       z     vdW  Elec       q    Type
REMARK                         _______ _______ _______ _____ _____    ______ ____
ROOT
ATOM      1  CA  LYS A   3      48.617  25.693  62.082  0.00  0.00    +0.149 C 
ENDROOT
BRANCH   1   4
ATOM      2  C   GLY A   2      50.262  24.092  61.331  0.00  0.00    +0.243 C 
ATOM      3  O   GLY A   2      50.077  23.342  62.302  0.00  0.00    -0.273 OA
ATOM      4  N   LYS A   3      49.605  25.229  61.146  0.00  0.00    -0.297 N 
ATOM      5  H   LYS A   3      49.810  25.800  60.301  0.00  0.00    +0.150 HD
BRANCH   2   6
ATOM      6  CA  GLY A   2      51.265  23.778  60.250  0.00  0.00    +0.176 C 
BRANCH   6   8
ATOM      7  C   ASP A   1      50.453  21.718  59.274  0.00  0.00    +0.239 C 
ATOM      8  N   GLY A   2      51.439  22.403  59.844  0.00  0.00    -0.296 N 
ATOM      9  H   GLY A   2      52.356  21.939  60.001  0.00  0.00    +0.150 HD
ATOM     10  O   ASP A   1      49.300  22.161  59.136  0.00  0.00    -0.274 OA
BRANCH   7  11
ATOM     11  CA  ASP A   1      50.813  20.300  58.850  0.00  0.00    +0.156 C 
BRANCH  11  12
ATOM     12  N   ASP A   1      49.671  19.420  58.996  0.00  0.00    -0.238 NA
ATOM     13  H   ASP A   1      48.958  19.382  58.240  0.00  0.00    +0.142 HD
ENDBRANCH  11  12
BRANCH  11  14
ATOM     14  CB  ASP A   1      51.304  20.302  57.397  0.00  0.00    +0.140 C 
BRANCH  14  15
ATOM     15  CG  ASP A   1      51.947  18.988  56.998  0.00  0.00    +0.367 C 
ATOM     16  OD2 ASP A   1      51.909  18.028  57.802  0.00  0.00    -0.246 OA
ATOM     17  OD1 ASP A   1      52.484  18.914  55.875  0.00  0.00    -0.246 OA
ENDBRANCH  14  15
ENDBRANCH  11  14
ENDBRANCH   7  11
ENDBRANCH   6   8
ENDBRANCH   2   6
ENDBRANCH   1   4
BRANCH   1  18
ATOM     18  C   LYS A   3      47.272  25.045  61.791  0.00  0.00    +0.241 C 
ATOM     19  N   MET A   4      46.367  25.140  62.756  0.00  0.00    -0.297 N 
ATOM     20  H   MET A   4      46.628  25.603  63.650  0.00  0.00    +0.150 HD
ATOM     21  O   LYS A   3      47.078  24.445  60.730  0.00  0.00    -0.273 OA
BRANCH  19  22
ATOM     22  CA  MET A   4      45.017  24.614  62.600  0.00  0.00    +0.149 C 
BRANCH  22  23
ATOM     23  C   MET A   4      44.997  23.154  62.154  0.00  0.00    +0.241 C 
ATOM     24  N   LYS A   5      45.574  22.253  62.941  0.00  0.00    -0.298 N 
ATOM     25  H   LYS A   5      46.027  22.547  63.830  0.00  0.00    +0.150 HD
ATOM     26  O   MET A   4      44.467  22.847  61.095  0.00  0.00    -0.273 OA
BRANCH  24  27
ATOM     27  CA  LYS A   5      45.568  20.851  62.551  0.00  0.00    +0.137 C 
BRANCH  27  28
ATOM     28  C   LYS A   5      44.130  20.332  62.489  0.00  0.00    +0.227 C 
ATOM     29  O   LYS A   5      43.300  20.669  63.337  0.00  0.00    -0.286 OA
ENDBRANCH  27  28
BRANCH  27  30
ATOM     30  CB  LYS A   5      46.419  20.026  63.523  0.00  0.00    +0.028 C 
BRANCH  30  31
ATOM     31  CG  LYS A   5      47.911  20.419  63.447  0.00  0.00    -0.000 C 
BRANCH  31  32
ATOM     32  CD  LYS A   5      48.838  19.372  64.061  0.00  0.00    -0.024 C 
BRANCH  32  33
ATOM     33  CE  LYS A   5      50.238  19.939  64.297  0.00  0.00    -0.086 C 
BRANCH  33  34
ATOM     34  NZ  LYS A   5      50.882  20.655  63.139  0.00  0.00    +0.380 N 
ATOM     35  HZ1 LYS A   5      51.824  20.992  63.422  0.00  0.00    -0.089 HD
ATOM     36  HZ2 LYS A   5      50.291  21.465  62.862  0.00  0.00    -0.089 HD
ATOM     37  HZ3 LYS A   5      50.973  20.001  62.336  0.00  0.00    -0.089 HD
ENDBRANCH  33  34
ENDBRANCH  32  33
ENDBRANCH  31  32
ENDBRANCH  30  31
ENDBRANCH  27  30
ENDBRANCH  24  27
ENDBRANCH  22  23
BRANCH  22  38
ATOM     38  CB  MET A   4      44.272  25.468  61.570  0.00  0.00    +0.041 C 
BRANCH  38  39
ATOM     39  CG  MET A   4      43.159  26.324  62.118  0.00  0.00    +0.060 C 
BRANCH  39  40
ATOM     40  SD  MET A   4      43.735  27.404  63.410  0.00  0.00    -0.139 S 
ATOM     41  CE  MET A   4      44.871  28.431  62.437  0.00  0.00    +0.069 C 
ENDBRANCH  39  40
ENDBRANCH  38  39
ENDBRANCH  22  38
ENDBRANCH  19  22
ENDBRANCH   1  18
BRANCH   1  42
ATOM     42  CB  LYS A   3      48.502  27.217  61.994  0.00  0.00    +0.029 C 
BRANCH  42  43
ATOM     43  CG  LYS A   3      49.812  27.968  62.316  0.00  0.00    +0.000 C 
BRANCH  43  44
ATOM     44  CD  LYS A   3      50.330  27.596  63.715  0.00  0.00    -0.024 C 
BRANCH  44  45
ATOM     45  CE  LYS A   3      51.516  28.452  64.172  0.00  0.00    -0.086 C 
BRANCH  45  46
ATOM     46  NZ  LYS A   3      52.727  28.331  63.293  0.00  0.00    +0.380 N 
ATOM     47  HZ1 LYS A   3      53.486  28.937  63.665  0.00  0.00    -0.089 HD
ATOM     48  HZ2 LYS A   3      53.047  27.342  63.280  0.00  0.00    -0.089 HD
ATOM     49  HZ3 LYS A   3      52.484  28.631  62.327  0.00  0.00    -0.089 HD
ENDBRANCH  45  46
ENDBRANCH  44  45
ENDBRANCH  43  44
ENDBRANCH  42  43
ENDBRANCH   1  42
TORSDOF 25
REMARK  Name = ../refined-set-2016/2za0/2za0_pocket.pdb
REMARK  182 active torsions:
REMARK  status: ('A' for Active; 'I' for Inactive)
REMARK    1  A    between atoms: _1  and  _3
REMARK    2  A    between atoms: _3  and  _4
REMARK    3  A    between atoms: _3  and  _6
REMARK    4  A    between atoms: _6  and  _7
REMARK    5  A    between atoms: _7  and  _8
REMARK    6  A    between atoms: _8  and  _9
REMARK    7  A    between atoms: _18  and  _20
REMARK    8  A    between atoms: _20  and  _21
REMARK    9  A    between atoms: _20  and  _23
REMARK   10  A    between atoms: _23  and  _24
REMARK   11  A    between atoms: _28  and  ZN_411
REMARK   12  A    between atoms: _29  and  _31
REMARK   13  A    between atoms: _31  and  _32
REMARK   14  A    between atoms: _31  and  _34
REMARK   15  A    between atoms: _34  and  _35
REMARK   16  A    between atoms: _38  and  _40
REMARK   17  A    between atoms: _40  and  _41
REMARK   18  A    between atoms: _43  and  _45
REMARK   19  A    between atoms: _45  and  _46
REMARK   20  A    between atoms: _45  and  _48
REMARK   21  A    between atoms: _48  and  _49
REMARK   22  A    between atoms: _52  and  _54
REMARK   23  A    between atoms: _54  and  _55
REMARK   24  A    between atoms: _54  and  _57
REMARK   25  A    between atoms: _60  and  _62
REMARK   26  A    between atoms: _62  and  _63
REMARK   27  A    between atoms: _62  and  _65
REMARK   28  A    between atoms: _65  and  _66
REMARK   29  A    between atoms: _66  and  _67
REMARK   30  A    between atoms: _67  and  _68
REMARK   31  A    between atoms: _68  and  _69
REMARK   32  A    between atoms: _73  and  _75
REMARK   33  A    between atoms: _75  and  _76
REMARK   34  A    between atoms: _75  and  _78
REMARK   35  A    between atoms: _78  and  _79
REMARK   36  A    between atoms: _82  and  _84
REMARK   37  A    between atoms: _84  and  _85
REMARK   38  A    between atoms: _87  and  _89
REMARK   39  A    between atoms: _89  and  _90
REMARK   40  A    between atoms: _89  and  _92
REMARK   41  A    between atoms: _92  and  _93
REMARK   42  A    between atoms: _93  and  _94
REMARK   43  A    between atoms: _94  and  _95
REMARK   44  A    between atoms: _95  and  _96
REMARK   45  A    between atoms: _100  and  _102
REMARK   46  A    between atoms: _102  and  _103
REMARK   47  A    between atoms: _102  and  _105
REMARK   48  A    between atoms: _105  and  _106
REMARK   49  A    between atoms: _106  and  _107
REMARK   50  A    between atoms: _109  and  _111
REMARK   51  A    between atoms: _111  and  _112
REMARK   52  A    between atoms: _111  and  _114
REMARK   53  A    between atoms: _114  and  _115
REMARK   54  A    between atoms: _115  and  _116
REMARK   55  A    between atoms: _116  and  _117
REMARK   56  A    between atoms: _117  and  _118
REMARK   57  A    between atoms: _122  and  _124
REMARK   58  A    between atoms: _124  and  _125
REMARK   59  A    between atoms: _124  and  _127
REMARK   60  A    between atoms: _127  and  _128
REMARK   61  A    between atoms: _131  and  _133
REMARK   62  A    between atoms: _133  and  _134
REMARK   63  A    between atoms: _137  and  _139
REMARK   64  A    between atoms: _139  and  _140
REMARK   65  A    between atoms: _139  and  _142
REMARK   66  A    between atoms: _142  and  _143
REMARK   67  A    between atoms: _149  and  _151
REMARK   68  A    between atoms: _151  and  _152
REMARK   69  A    between atoms: _151  and  _154
REMARK   70  A    between atoms: _154  and  _155
REMARK   71  A    between atoms: _165  and  _167
REMARK   72  A    between atoms: _167  and  _168
REMARK   73  A    between atoms: _167  and  _170
REMARK   74  A    between atoms: _170  and  _171
REMARK   75  A    between atoms: _171  and  _172
REMARK   76  A    between atoms: _172  and  _173
REMARK   77  A    between atoms: _173  and  ZN_411
REMARK   78  A    between atoms: _175  and  _177
REMARK   79  A    between atoms: _177  and  _178
REMARK   80  A    between atoms: _177  and  _180
REMARK   81  A    between atoms: _180  and  _181
REMARK   82  A    between atoms: _184  and  _186
REMARK   83  A    between atoms: _186  and  _187
REMARK   84  A    between atoms: _186  and  _189
REMARK   85  A    between atoms: _189  and  _190
REMARK   86  A    between atoms: _193  and  _195
REMARK   87  A    between atoms: _195  and  _196
REMARK   88  A    between atoms: _195  and  _198
REMARK   89  A    between atoms: _198  and  _199
REMARK   90  A    between atoms: _199  and  _200
REMARK   91  A    between atoms: _200  and  _201
REMARK   92  A    between atoms: _201  and  _202
REMARK   93  A    between atoms: _206  and  _208
REMARK   94  A    between atoms: _208  and  _209
REMARK   95  A    between atoms: _208  and  _211
REMARK   96  A    between atoms: _211  and  _212
REMARK   97  A    between atoms: _215  and  _217
REMARK   98  A    between atoms: _217  and  _218
REMARK   99  A    between atoms: _221  and  _223
REMARK  100  A    between atoms: _223  and  _224
REMARK  101  A    between atoms: _223  and  _226
REMARK  102  A    between atoms: _226  and  _227
REMARK  103  A    between atoms: _230  and  _232
REMARK  104  A    between atoms: _232  and  _233
REMARK  105  A    between atoms: _232  and  _235
REMARK  106  A    between atoms: _235  and  _236
REMARK  107  A    between atoms: _236  and  _237
REMARK  108  A    between atoms: _242  and  _244
REMARK  109  A    between atoms: _244  and  _245
REMARK  110  A    between atoms: _244  and  _247
REMARK  111  A    between atoms: _247  and  _248
REMARK  112  A    between atoms: _248  and  _249
REMARK  113  A    between atoms: _249  and  _250
REMARK  114  A    between atoms: _249  and  _251
REMARK  115  A    between atoms: _250  and  ZN_411
REMARK  116  A    between atoms: _254  and  _256
REMARK  117  A    between atoms: _256  and  _257
REMARK  118  A    between atoms: _256  and  _259
REMARK  119  A    between atoms: _259  and  _260
REMARK  120  A    between atoms: _260  and  _261
REMARK  121  A    between atoms: _263  and  _265
REMARK  122  A    between atoms: _265  and  _266
REMARK  123  A    between atoms: _265  and  _268
REMARK  124  A    between atoms: _268  and  _269
REMARK  125  A    between atoms: _269  and  _270
REMARK  126  A    between atoms: _270  and  _271
REMARK  127  A    between atoms: _280  and  _282
REMARK  128  A    between atoms: _282  and  _283
REMARK  129  A    between atoms: _282  and  _285
REMARK  130  A    between atoms: _285  and  _286
REMARK  131  A    between atoms: _289  and  _291
REMARK  132  A    between atoms: _291  and  _292
REMARK  133  A    between atoms: _291  and  _294
REMARK  134  A    between atoms: _294  and  _295
REMARK  135  A    between atoms: _301  and  _303
REMARK  136  A    between atoms: _303  and  _304
REMARK  137  A    between atoms: _303  and  _306
REMARK  138  A    between atoms: _306  and  _307
REMARK  139  A    between atoms: _307  and  _308
REMARK  140  A    between atoms: _310  and  _312
REMARK  141  A    between atoms: _312  and  _313
REMARK  142  A    between atoms: _312  and  _315
REMARK  143  A    between atoms: _315  and  _316
REMARK  144  A    between atoms: _322  and  _324
REMARK  145  A    between atoms: _324  and  _325
REMARK  146  A    between atoms: _324  and  _327
REMARK  147  A    between atoms: _327  and  _328
REMARK  148  A    between atoms: _330  and  _332
REMARK  149  A    between atoms: _332  and  _333
REMARK  150  A    between atoms: _332  and  _335
REMARK  151  A    between atoms: _335  and  _336
REMARK  152  A    between atoms: _339  and  _341
REMARK  153  A    between atoms: _341  and  _342
REMARK  154  A    between atoms: _341  and  _344
REMARK  155  A    between atoms: _344  and  _345
REMARK  156  A    between atoms: _351  and  _353
REMARK  157  A    between atoms: _353  and  _354
REMARK  158  A    between atoms: _353  and  _356
REMARK  159  A    between atoms: _356  and  _357
REMARK  160  A    between atoms: _360  and  _362
REMARK  161  A    between atoms: _362  and  _363
REMARK  162  A    between atoms: _362  and  _365
REMARK  163  A    between atoms: _365  and  _366
REMARK  164  A    between atoms: _372  and  _374
REMARK  165  A    between atoms: _374  and  _375
REMARK  166  A    between atoms: _374  and  _377
REMARK  167  A    between atoms: _377  and  _378
REMARK  168  A    between atoms: _381  and  _383
REMARK  169  A    between atoms: _383  and  _384
REMARK  170  A    between atoms: _383  and  _386
REMARK  171  A    between atoms: _386  and  _387
REMARK  172  A    between atoms: _387  and  _388
REMARK  173  A    between atoms: _388  and  _389
REMARK  174  A    between atoms: _389  and  ZN_411
REMARK  175  A    between atoms: _391  and  _393
REMARK  176  A    between atoms: _393  and  _394
REMARK  177  A    between atoms: _393  and  _396
REMARK  178  A    between atoms: _396  and  _397
REMARK  179  A    between atoms: _400  and  _402
REMARK  180  A    between atoms: _402  and  _403
REMARK  181  A    between atoms: _402  and  _405
REMARK  182  A    between atoms: _405  and  _406
REMARK                            x       y       z     vdW  Elec       q    Type
REMARK                         _______ _______ _______ _____ _____    ______ ____
ROOT
ATOM      1  C   ALA A   2      42.921  22.455  54.043  0.00  0.00    +0.241 C 
ATOM      2  O   ALA A   2      41.799  22.968  54.026  0.00  0.00    -0.273 OA
ATOM      3  N   PHE A   3      43.866  22.714  53.136  0.00  0.00    -0.298 N 
ATOM      4  H   PHE A   3      44.794  22.259  53.247  0.00  0.00    +0.150 HD
ENDROOT
BRANCH   1   5
ATOM      5  CA  ALA A   2      43.298  21.446  55.123  0.00  0.00    +0.149 C 
ATOM      6  CB  ALA A   2      43.339  20.056  54.512  0.00  0.00    +0.031 C 
BRANCH   5   9
ATOM      7  C   LEU A   1      42.843  21.599  57.477  0.00  0.00    +0.238 C 
ATOM      8  O   LEU A   1      44.049  21.637  57.692  0.00  0.00    -0.274 OA
ATOM      9  N   ALA A   2      42.363  21.484  56.243  0.00  0.00    -0.297 N 
ATOM     10  H   ALA A   2      41.338  21.422  56.078  0.00  0.00    +0.150 HD
BRANCH   7  11
ATOM     11  CA  LEU A   1      41.845  21.660  58.651  0.00  0.00    +0.145 C 
BRANCH  11  12
ATOM     12  N   LEU A   1      42.370  20.842  59.737  0.00  0.00    -0.238 NA
ATOM     13  H   LEU A   1      43.260  21.133  60.190  0.00  0.00    +0.142 HD
ENDBRANCH  11  12
BRANCH  11  14
ATOM     14  CB  LEU A   1      41.709  23.092  59.154  0.00  0.00    +0.026 C 
BRANCH  14  15
ATOM     15  CG  LEU A   1      41.058  24.133  58.250  0.00  0.00    +0.002 C 
ATOM     16  CD2 LEU A   1      41.096  25.525  58.920  0.00  0.00    +0.000 C 
ATOM     17  CD1 LEU A   1      39.624  23.706  58.007  0.00  0.00    +0.000 C 
ENDBRANCH  14  15
ENDBRANCH  11  14
ENDBRANCH   7  11
ENDBRANCH   5   9
ENDBRANCH   1   5
BRANCH   3  18
ATOM     18  CA  PHE A   3      43.663  23.602  51.999  0.00  0.00    +0.141 C 
BRANCH  18  19
ATOM     19  C   PHE A   3      44.301  22.948  50.797  0.00  0.00    +0.227 C 
ATOM     20  O   PHE A   3      45.456  22.493  50.867  0.00  0.00    -0.286 OA
ENDBRANCH  18  19
BRANCH  18  21
ATOM     21  CB  PHE A   3      44.338  24.971  52.195  0.00  0.00    +0.054 C 
BRANCH  21  22
ATOM     22  CG  PHE A   3      43.643  25.869  53.206  0.00  0.00    -0.020 A 
ATOM     23  CD2 PHE A   3      43.937  25.758  54.552  0.00  0.00    -0.004 A 
ATOM     24  CE2 PHE A   3      43.272  26.521  55.504  0.00  0.00    -0.000 A 
ATOM     25  CZ  PHE A   3      42.312  27.407  55.112  0.00  0.00    -0.000 A 
ATOM     26  CE1 PHE A   3      42.000  27.540  53.756  0.00  0.00    -0.000 A 
ATOM     27  CD1 PHE A   3      42.664  26.769  52.809  0.00  0.00    -0.004 A 
ENDBRANCH  21  22
ENDBRANCH  18  21
ENDBRANCH   3  18
TORSDOF 10
REMARK  Name = ../refined-set-2016/2za0/2za0_pocket.pdb
REMARK  182 active torsions:
REMARK  status: ('A' for Active; 'I' for Inactive)
REMARK    1  A    between atoms: _1  and  _3
REMARK    2  A    between atoms: _3  and  _4
REMARK    3  A    between atoms: _3  and  _6
REMARK    4  A    between atoms: _6  and  _7
REMARK    5  A    between atoms: _7  and  _8
REMARK    6  A    between atoms: _8  and  _9
REMARK    7  A    between atoms: _18  and  _20
REMARK    8  A    between atoms: _20  and  _21
REMARK    9  A    between atoms: _20  and  _23
REMARK   10  A    between atoms: _23  and  _24
REMARK   11  A    between atoms: _28  and  ZN_411
REMARK   12  A    between atoms: _29  and  _31
REMARK   13  A    between atoms: _31  and  _32
REMARK   14  A    between atoms: _31  and  _34
REMARK   15  A    between atoms: _34  and  _35
REMARK   16  A    between atoms: _38  and  _40
REMARK   17  A    between atoms: _40  and  _41
REMARK   18  A    between atoms: _43  and  _45
REMARK   19  A    between atoms: _45  and  _46
REMARK   20  A    between atoms: _45  and  _48
REMARK   21  A    between atoms: _48  and  _49
REMARK   22  A    between atoms: _52  and  _54
REMARK   23  A    between atoms: _54  and  _55
REMARK   24  A    between atoms: _54  and  _57
REMARK   25  A    between atoms: _60  and  _62
REMARK   26  A    between atoms: _62  and  _63
REMARK   27  A    between atoms: _62  and  _65
REMARK   28  A    between atoms: _65  and  _66
REMARK   29  A    between atoms: _66  and  _67
REMARK   30  A    between atoms: _67  and  _68
REMARK   31  A    between atoms: _68  and  _69
REMARK   32  A    between atoms: _73  and  _75
REMARK   33  A    between atoms: _75  and  _76
REMARK   34  A    between atoms: _75  and  _78
REMARK   35  A    between atoms: _78  and  _79
REMARK   36  A    between atoms: _82  and  _84
REMARK   37  A    between atoms: _84  and  _85
REMARK   38  A    between atoms: _87  and  _89
REMARK   39  A    between atoms: _89  and  _90
REMARK   40  A    between atoms: _89  and  _92
REMARK   41  A    between atoms: _92  and  _93
REMARK   42  A    between atoms: _93  and  _94
REMARK   43  A    between atoms: _94  and  _95
REMARK   44  A    between atoms: _95  and  _96
REMARK   45  A    between atoms: _100  and  _102
REMARK   46  A    between atoms: _102  and  _103
REMARK   47  A    between atoms: _102  and  _105
REMARK   48  A    between atoms: _105  and  _106
REMARK   49  A    between atoms: _106  and  _107
REMARK   50  A    between atoms: _109  and  _111
REMARK   51  A    between atoms: _111  and  _112
REMARK   52  A    between atoms: _111  and  _114
REMARK   53  A    between atoms: _114  and  _115
REMARK   54  A    between atoms: _115  and  _116
REMARK   55  A    between atoms: _116  and  _117
REMARK   56  A    between atoms: _117  and  _118
REMARK   57  A    between atoms: _122  and  _124
REMARK   58  A    between atoms: _124  and  _125
REMARK   59  A    between atoms: _124  and  _127
REMARK   60  A    between atoms: _127  and  _128
REMARK   61  A    between atoms: _131  and  _133
REMARK   62  A    between atoms: _133  and  _134
REMARK   63  A    between atoms: _137  and  _139
REMARK   64  A    between atoms: _139  and  _140
REMARK   65  A    between atoms: _139  and  _142
REMARK   66  A    between atoms: _142  and  _143
REMARK   67  A    between atoms: _149  and  _151
REMARK   68  A    between atoms: _151  and  _152
REMARK   69  A    between atoms: _151  and  _154
REMARK   70  A    between atoms: _154  and  _155
REMARK   71  A    between atoms: _165  and  _167
REMARK   72  A    between atoms: _167  and  _168
REMARK   73  A    between atoms: _167  and  _170
REMARK   74  A    between atoms: _170  and  _171
REMARK   75  A    between atoms: _171  and  _172
REMARK   76  A    between atoms: _172  and  _173
REMARK   77  A    between atoms: _173  and  ZN_411
REMARK   78  A    between atoms: _175  and  _177
REMARK   79  A    between atoms: _177  and  _178
REMARK   80  A    between atoms: _177  and  _180
REMARK   81  A    between atoms: _180  and  _181
REMARK   82  A    between atoms: _184  and  _186
REMARK   83  A    between atoms: _186  and  _187
REMARK   84  A    between atoms: _186  and  _189
REMARK   85  A    between atoms: _189  and  _190
REMARK   86  A    between atoms: _193  and  _195
REMARK   87  A    between atoms: _195  and  _196
REMARK   88  A    between atoms: _195  and  _198
REMARK   89  A    between atoms: _198  and  _199
REMARK   90  A    between atoms: _199  and  _200
REMARK   91  A    between atoms: _200  and  _201
REMARK   92  A    between atoms: _201  and  _202
REMARK   93  A    between atoms: _206  and  _208
REMARK   94  A    between atoms: _208  and  _209
REMARK   95  A    between atoms: _208  and  _211
REMARK   96  A    between atoms: _211  and  _212
REMARK   97  A    between atoms: _215  and  _217
REMARK   98  A    between atoms: _217  and  _218
REMARK   99  A    between atoms: _221  and  _223
REMARK  100  A    between atoms: _223  and  _224
REMARK  101  A    between atoms: _223  and  _226
REMARK  102  A    between atoms: _226  and  _227
REMARK  103  A    between atoms: _230  and  _232
REMARK  104  A    between atoms: _232  and  _233
REMARK  105  A    between atoms: _232  and  _235
REMARK  106  A    between atoms: _235  and  _236
REMARK  107  A    between atoms: _236  and  _237
REMARK  108  A    between atoms: _242  and  _244
REMARK  109  A    between atoms: _244  and  _245
REMARK  110  A    between atoms: _244  and  _247
REMARK  111  A    between atoms: _247  and  _248
REMARK  112  A    between atoms: _248  and  _249
REMARK  113  A    between atoms: _249  and  _250
REMARK  114  A    between atoms: _249  and  _251
REMARK  115  A    between atoms: _250  and  ZN_411
REMARK  116  A    between atoms: _254  and  _256
REMARK  117  A    between atoms: _256  and  _257
REMARK  118  A    between atoms: _256  and  _259
REMARK  119  A    between atoms: _259  and  _260
REMARK  120  A    between atoms: _260  and  _261
REMARK  121  A    between atoms: _263  and  _265
REMARK  122  A    between atoms: _265  and  _266
REMARK  123  A    between atoms: _265  and  _268
REMARK  124  A    between atoms: _268  and  _269
REMARK  125  A    between atoms: _269  and  _270
REMARK  126  A    between atoms: _270  and  _271
REMARK  127  A    between atoms: _280  and  _282
REMARK  128  A    between atoms: _282  and  _283
REMARK  129  A    between atoms: _282  and  _285
REMARK  130  A    between atoms: _285  and  _286
REMARK  131  A    between atoms: _289  and  _291
REMARK  132  A    between atoms: _291  and  _292
REMARK  133  A    between atoms: _291  and  _294
REMARK  134  A    between atoms: _294  and  _295
REMARK  135  A    between atoms: _301  and  _303
REMARK  136  A    between atoms: _303  and  _304
REMARK  137  A    between atoms: _303  and  _306
REMARK  138  A    between atoms: _306  and  _307
REMARK  139  A    between atoms: _307  and  _308
REMARK  140  A    between atoms: _310  and  _312
REMARK  141  A    between atoms: _312  and  _313
REMARK  142  A    between atoms: _312  and  _315
REMARK  143  A    between atoms: _315  and  _316
REMARK  144  A    between atoms: _322  and  _324
REMARK  145  A    between atoms: _324  and  _325
REMARK  146  A    between atoms: _324  and  _327
REMARK  147  A    between atoms: _327  and  _328
REMARK  148  A    between atoms: _330  and  _332
REMARK  149  A    between atoms: _332  and  _333
REMARK  150  A    between atoms: _332  and  _335
REMARK  151  A    between atoms: _335  and  _336
REMARK  152  A    between atoms: _339  and  _341
REMARK  153  A    between atoms: _341  and  _342
REMARK  154  A    between atoms: _341  and  _344
REMARK  155  A    between atoms: _344  and  _345
REMARK  156  A    between atoms: _351  and  _353
REMARK  157  A    between atoms: _353  and  _354
REMARK  158  A    between atoms: _353  and  _356
REMARK  159  A    between atoms: _356  and  _357
REMARK  160  A    between atoms: _360  and  _362
REMARK  161  A    between atoms: _362  and  _363
REMARK  162  A    between atoms: _362  and  _365
REMARK  163  A    between atoms: _365  and  _366
REMARK  164  A    between atoms: _372  and  _374
REMARK  165  A    between atoms: _374  and  _375
REMARK  166  A    between atoms: _374  and  _377
REMARK  167  A    between atoms: _377  and  _378
REMARK  168  A    between atoms: _381  and  _383
REMARK  169  A    between atoms: _383  and  _384
REMARK  170  A    between atoms: _383  and  _386
REMARK  171  A    between atoms: _386  and  _387
REMARK  172  A    between atoms: _387  and  _388
REMARK  173  A    between atoms: _388  and  _389
REMARK  174  A    between atoms: _389  and  ZN_411
REMARK  175  A    between atoms: _391  and  _393
REMARK  176  A    between atoms: _393  and  _394
REMARK  177  A    between atoms: _393  and  _396
REMARK  178  A    between atoms: _396  and  _397
REMARK  179  A    between atoms: _400  and  _402
REMARK  180  A    between atoms: _402  and  _403
REMARK  181  A    between atoms: _402  and  _405
REMARK  182  A    between atoms: _405  and  _406
REMARK                            x       y       z     vdW  Elec       q    Type
REMARK                         _______ _______ _______ _____ _____    ______ ____
ROOT
ATOM      1  CG  TRP A   1      44.568  28.976  48.398  0.00  0.00    -0.002 A 
ATOM      2  CD2 TRP A   1      45.361  29.630  49.397  0.00  0.00    +0.013 A 
ATOM      3  CE3 TRP A   1      45.084  30.149  50.663  0.00  0.00    +0.001 A 
ATOM      4  CZ3 TRP A   1      46.127  30.748  51.386  0.00  0.00    +0.000 A 
ATOM      5  CH2 TRP A   1      47.429  30.825  50.857  0.00  0.00    +0.001 A 
ATOM      6  CZ2 TRP A   1      47.731  30.319  49.623  0.00  0.00    +0.017 A 
ATOM      7  CE2 TRP A   1      46.681  29.722  48.893  0.00  0.00    +0.056 A 
ATOM      8  NE1 TRP A   1      46.686  29.158  47.649  0.00  0.00    -0.352 N 
ATOM      9  HE1 TRP A   1      47.513  29.075  47.024  0.00  0.00    +0.166 HD
ATOM     10  CD1 TRP A   1      45.406  28.715  47.357  0.00  0.00    +0.068 A 
ENDROOT
BRANCH   1  11
ATOM     11  CB  TRP A   1      43.094  28.648  48.498  0.00  0.00    +0.053 C 
BRANCH  11  12
ATOM     12  CA  TRP A   1      42.572  27.809  47.354  0.00  0.00    +0.137 C 
BRANCH  12  13
ATOM     13  N   TRP A   1      42.523  28.611  46.136  0.00  0.00    -0.239 NA
ATOM     14  H   TRP A   1      42.515  29.648  46.214  0.00  0.00    +0.142 HD
ENDBRANCH  12  13
BRANCH  12  15
ATOM     15  C   TRP A   1      41.196  27.321  47.750  0.00  0.00    +0.224 C 
ATOM     16  O   TRP A   1      40.235  28.075  47.681  0.00  0.00    -0.287 OA
ENDBRANCH  12  15
ENDBRANCH  11  12
ENDBRANCH   1  11
TORSDOF 4
REMARK  Name = ../refined-set-2016/2za0/2za0_pocket.pdb
REMARK  182 active torsions:
REMARK  status: ('A' for Active; 'I' for Inactive)
REMARK    1  A    between atoms: _1  and  _3
REMARK    2  A    between atoms: _3  and  _4
REMARK    3  A    between atoms: _3  and  _6
REMARK    4  A    between atoms: _6  and  _7
REMARK    5  A    between atoms: _7  and  _8
REMARK    6  A    between atoms: _8  and  _9
REMARK    7  A    between atoms: _18  and  _20
REMARK    8  A    between atoms: _20  and  _21
REMARK    9  A    between atoms: _20  and  _23
REMARK   10  A    between atoms: _23  and  _24
REMARK   11  A    between atoms: _28  and  ZN_411
REMARK   12  A    between atoms: _29  and  _31
REMARK   13  A    between atoms: _31  and  _32
REMARK   14  A    between atoms: _31  and  _34
REMARK   15  A    between atoms: _34  and  _35
REMARK   16  A    between atoms: _38  and  _40
REMARK   17  A    between atoms: _40  and  _41
REMARK   18  A    between atoms: _43  and  _45
REMARK   19  A    between atoms: _45  and  _46
REMARK   20  A    between atoms: _45  and  _48
REMARK   21  A    between atoms: _48  and  _49
REMARK   22  A    between atoms: _52  and  _54
REMARK   23  A    between atoms: _54  and  _55
REMARK   24  A    between atoms: _54  and  _57
REMARK   25  A    between atoms: _60  and  _62
REMARK   26  A    between atoms: _62  and  _63
REMARK   27  A    between atoms: _62  and  _65
REMARK   28  A    between atoms: _65  and  _66
REMARK   29  A    between atoms: _66  and  _67
REMARK   30  A    between atoms: _67  and  _68
REMARK   31  A    between atoms: _68  and  _69
REMARK   32  A    between atoms: _73  and  _75
REMARK   33  A    between atoms: _75  and  _76
REMARK   34  A    between atoms: _75  and  _78
REMARK   35  A    between atoms: _78  and  _79
REMARK   36  A    between atoms: _82  and  _84
REMARK   37  A    between atoms: _84  and  _85
REMARK   38  A    between atoms: _87  and  _89
REMARK   39  A    between atoms: _89  and  _90
REMARK   40  A    between atoms: _89  and  _92
REMARK   41  A    between atoms: _92  and  _93
REMARK   42  A    between atoms: _93  and  _94
REMARK   43  A    between atoms: _94  and  _95
REMARK   44  A    between atoms: _95  and  _96
REMARK   45  A    between atoms: _100  and  _102
REMARK   46  A    between atoms: _102  and  _103
REMARK   47  A    between atoms: _102  and  _105
REMARK   48  A    between atoms: _105  and  _106
REMARK   49  A    between atoms: _106  and  _107
REMARK   50  A    between atoms: _109  and  _111
REMARK   51  A    between atoms: _111  and  _112
REMARK   52  A    between atoms: _111  and  _114
REMARK   53  A    between atoms: _114  and  _115
REMARK   54  A    between atoms: _115  and  _116
REMARK   55  A    between atoms: _116  and  _117
REMARK   56  A    between atoms: _117  and  _118
REMARK   57  A    between atoms: _122  and  _124
REMARK   58  A    between atoms: _124  and  _125
REMARK   59  A    between atoms: _124  and  _127
REMARK   60  A    between atoms: _127  and  _128
REMARK   61  A    between atoms: _131  and  _133
REMARK   62  A    between atoms: _133  and  _134
REMARK   63  A    between atoms: _137  and  _139
REMARK   64  A    between atoms: _139  and  _140
REMARK   65  A    between atoms: _139  and  _142
REMARK   66  A    between atoms: _142  and  _143
REMARK   67  A    between atoms: _149  and  _151
REMARK   68  A    between atoms: _151  and  _152
REMARK   69  A    between atoms: _151  and  _154
REMARK   70  A    between atoms: _154  and  _155
REMARK   71  A    between atoms: _165  and  _167
REMARK   72  A    between atoms: _167  and  _168
REMARK   73  A    between atoms: _167  and  _170
REMARK   74  A    between atoms: _170  and  _171
REMARK   75  A    between atoms: _171  and  _172
REMARK   76  A    between atoms: _172  and  _173
REMARK   77  A    between atoms: _173  and  ZN_411
REMARK   78  A    between atoms: _175  and  _177
REMARK   79  A    between atoms: _177  and  _178
REMARK   80  A    between atoms: _177  and  _180
REMARK   81  A    between atoms: _180  and  _181
REMARK   82  A    between atoms: _184  and  _186
REMARK   83  A    between atoms: _186  and  _187
REMARK   84  A    between atoms: _186  and  _189
REMARK   85  A    between atoms: _189  and  _190
REMARK   86  A    between atoms: _193  and  _195
REMARK   87  A    between atoms: _195  and  _196
REMARK   88  A    between atoms: _195  and  _198
REMARK   89  A    between atoms: _198  and  _199
REMARK   90  A    between atoms: _199  and  _200
REMARK   91  A    between atoms: _200  and  _201
REMARK   92  A    between atoms: _201  and  _202
REMARK   93  A    between atoms: _206  and  _208
REMARK   94  A    between atoms: _208  and  _209
REMARK   95  A    between atoms: _208  and  _211
REMARK   96  A    between atoms: _211  and  _212
REMARK   97  A    between atoms: _215  and  _217
REMARK   98  A    between atoms: _217  and  _218
REMARK   99  A    between atoms: _221  and  _223
REMARK  100  A    between atoms: _223  and  _224
REMARK  101  A    between atoms: _223  and  _226
REMARK  102  A    between atoms: _226  and  _227
REMARK  103  A    between atoms: _230  and  _232
REMARK  104  A    between atoms: _232  and  _233
REMARK  105  A    between atoms: _232  and  _235
REMARK  106  A    between atoms: _235  and  _236
REMARK  107  A    between atoms: _236  and  _237
REMARK  108  A    between atoms: _242  and  _244
REMARK  109  A    between atoms: _244  and  _245
REMARK  110  A    between atoms: _244  and  _247
REMARK  111  A    between atoms: _247  and  _248
REMARK  112  A    between atoms: _248  and  _249
REMARK  113  A    between atoms: _249  and  _250
REMARK  114  A    between atoms: _249  and  _251
REMARK  115  A    between atoms: _250  and  ZN_411
REMARK  116  A    between atoms: _254  and  _256
REMARK  117  A    between atoms: _256  and  _257
REMARK  118  A    between atoms: _256  and  _259
REMARK  119  A    between atoms: _259  and  _260
REMARK  120  A    between atoms: _260  and  _261
REMARK  121  A    between atoms: _263  and  _265
REMARK  122  A    between atoms: _265  and  _266
REMARK  123  A    between atoms: _265  and  _268
REMARK  124  A    between atoms: _268  and  _269
REMARK  125  A    between atoms: _269  and  _270
REMARK  126  A    between atoms: _270  and  _271
REMARK  127  A    between atoms: _280  and  _282
REMARK  128  A    between atoms: _282  and  _283
REMARK  129  A    between atoms: _282  and  _285
REMARK  130  A    between atoms: _285  and  _286
REMARK  131  A    between atoms: _289  and  _291
REMARK  132  A    between atoms: _291  and  _292
REMARK  133  A    between atoms: _291  and  _294
REMARK  134  A    between atoms: _294  and  _295
REMARK  135  A    between atoms: _301  and  _303
REMARK  136  A    between atoms: _303  and  _304
REMARK  137  A    between atoms: _303  and  _306
REMARK  138  A    between atoms: _306  and  _307
REMARK  139  A    between atoms: _307  and  _308
REMARK  140  A    between atoms: _310  and  _312
REMARK  141  A    between atoms: _312  and  _313
REMARK  142  A    between atoms: _312  and  _315
REMARK  143  A    between atoms: _315  and  _316
REMARK  144  A    between atoms: _322  and  _324
REMARK  145  A    between atoms: _324  and  _325
REMARK  146  A    between atoms: _324  and  _327
REMARK  147  A    between atoms: _327  and  _328
REMARK  148  A    between atoms: _330  and  _332
REMARK  149  A    between atoms: _332  and  _333
REMARK  150  A    between atoms: _332  and  _335
REMARK  151  A    between atoms: _335  and  _336
REMARK  152  A    between atoms: _339  and  _341
REMARK  153  A    between atoms: _341  and  _342
REMARK  154  A    between atoms: _341  and  _344
REMARK  155  A    between atoms: _344  and  _345
REMARK  156  A    between atoms: _351  and  _353
REMARK  157  A    between atoms: _353  and  _354
REMARK  158  A    between atoms: _353  and  _356
REMARK  159  A    between atoms: _356  and  _357
REMARK  160  A    between atoms: _360  and  _362
REMARK  161  A    between atoms: _362  and  _363
REMARK  162  A    between atoms: _362  and  _365
REMARK  163  A    between atoms: _365  and  _366
REMARK  164  A    between atoms: _372  and  _374
REMARK  165  A    between atoms: _374  and  _375
REMARK  166  A    between atoms: _374  and  _377
REMARK  167  A    between atoms: _377  and  _378
REMARK  168  A    between atoms: _381  and  _383
REMARK  169  A    between atoms: _383  and  _384
REMARK  170  A    between atoms: _383  and  _386
REMARK  171  A    between atoms: _386  and  _387
REMARK  172  A    between atoms: _387  and  _388
REMARK  173  A    between atoms: _388  and  _389
REMARK  174  A    between atoms: _389  and  ZN_411
REMARK  175  A    between atoms: _391  and  _393
REMARK  176  A    between atoms: _393  and  _394
REMARK  177  A    between atoms: _393  and  _396
REMARK  178  A    between atoms: _396  and  _397
REMARK  179  A    between atoms: _400  and  _402
REMARK  180  A    between atoms: _402  and  _403
REMARK  181  A    between atoms: _402  and  _405
REMARK  182  A    between atoms: _405  and  _406
REMARK                            x       y       z     vdW  Elec       q    Type
REMARK                         _______ _______ _______ _____ _____    ______ ____
ROOT
ATOM      1  C   LYS A   1      36.274  20.768  64.727  0.00  0.00    +0.238 C 
ATOM      2  O   LYS A   1      37.307  20.962  65.356  0.00  0.00    -0.274 OA
ATOM      3  N   ILE A   2      35.637  21.743  64.097  0.00  0.00    -0.297 N 
ATOM      4  H   ILE A   2      34.746  21.552  63.596  0.00  0.00    +0.150 HD
ENDROOT
BRANCH   1   5
ATOM      5  CA  LYS A   1      35.638  19.409  64.696  0.00  0.00    +0.145 C 
BRANCH   5   6
ATOM      6  N   LYS A   1      34.359  19.380  64.001  0.00  0.00    -0.238 NA
ATOM      7  H   LYS A   1      34.301  19.643  62.997  0.00  0.00    +0.142 HD
ENDBRANCH   5   6
BRANCH   5   8
ATOM      8  CB  LYS A   1      36.575  18.374  64.095  0.00  0.00    +0.026 C 
BRANCH   8   9
ATOM      9  CG  LYS A   1      36.112  16.959  64.452  0.00  0.00    -0.000 C 
BRANCH   9  10
ATOM     10  CD  LYS A   1      37.178  15.919  64.173  0.00  0.00    -0.024 C 
BRANCH  10  11
ATOM     11  CE  LYS A   1      36.688  14.518  64.539  0.00  0.00    -0.086 C 
BRANCH  11  12
ATOM     12  NZ  LYS A   1      37.726  13.474  64.239  0.00  0.00    +0.380 N 
ATOM     13  HZ1 LYS A   1      38.587  13.675  64.787  0.00  0.00    -0.089 HD
ATOM     14  HZ2 LYS A   1      37.359  12.537  64.500  0.00  0.00    -0.089 HD
ATOM     15  HZ3 LYS A   1      37.949  13.490  63.223  0.00  0.00    -0.089 HD
ENDBRANCH  11  12
ENDBRANCH  10  11
ENDBRANCH   9  10
ENDBRANCH   8   9
ENDBRANCH   5   8
ENDBRANCH   1   5
BRANCH   3  16
ATOM     16  CA  ILE A   2      36.201  23.088  64.114  0.00  0.00    +0.148 C 
BRANCH  16  17
ATOM     17  C   ILE A   2      36.279  23.683  65.518  0.00  0.00    +0.241 C 
ATOM     18  N   ALA A   3      35.281  23.395  66.348  0.00  0.00    -0.298 N 
ATOM     19  H   ALA A   3      34.518  22.764  66.031  0.00  0.00    +0.150 HD
ATOM     20  O   ILE A   2      37.236  24.399  65.838  0.00  0.00    -0.273 OA
BRANCH  18  21
ATOM     21  CA  ALA A   3      35.240  23.954  67.705  0.00  0.00    +0.137 C 
ATOM     22  CB  ALA A   3      33.951  23.529  68.403  0.00  0.00    +0.030 C 
BRANCH  21  23
ATOM     23  C   ALA A   3      36.442  23.578  68.568  0.00  0.00    +0.227 C 
ATOM     24  O   ALA A   3      36.799  24.302  69.487  0.00  0.00    -0.286 OA
ENDBRANCH  21  23
ENDBRANCH  18  21
ENDBRANCH  16  17
BRANCH  16  25
ATOM     25  CB  ILE A   2      35.378  24.057  63.239  0.00  0.00    +0.027 C 
ATOM     26  CG2 ILE A   2      35.893  25.494  63.423  0.00  0.00    +0.002 C 
BRANCH  25  27
ATOM     27  CG1 ILE A   2      35.464  23.621  61.788  0.00  0.00    +0.002 C 
ATOM     28  CD1 ILE A   2      36.831  23.869  61.151  0.00  0.00    +0.000 C 
ENDBRANCH  25  27
ENDBRANCH  16  25
ENDBRANCH   3  16
TORSDOF 13
REMARK  Name = ../refined-set-2016/2za0/2za0_pocket.pdb
REMARK  182 active torsions:
REMARK  status: ('A' for Active; 'I' for Inactive)
REMARK    1  A    between atoms: _1  and  _3
REMARK    2  A    between atoms: _3  and  _4
REMARK    3  A    between atoms: _3  and  _6
REMARK    4  A    between atoms: _6  and  _7
REMARK    5  A    between atoms: _7  and  _8
REMARK    6  A    between atoms: _8  and  _9
REMARK    7  A    between atoms: _18  and  _20
REMARK    8  A    between atoms: _20  and  _21
REMARK    9  A    between atoms: _20  and  _23
REMARK   10  A    between atoms: _23  and  _24
REMARK   11  A    between atoms: _28  and  ZN_411
REMARK   12  A    between atoms: _29  and  _31
REMARK   13  A    between atoms: _31  and  _32
REMARK   14  A    between atoms: _31  and  _34
REMARK   15  A    between atoms: _34  and  _35
REMARK   16  A    between atoms: _38  and  _40
REMARK   17  A    between atoms: _40  and  _41
REMARK   18  A    between atoms: _43  and  _45
REMARK   19  A    between atoms: _45  and  _46
REMARK   20  A    between atoms: _45  and  _48
REMARK   21  A    between atoms: _48  and  _49
REMARK   22  A    between atoms: _52  and  _54
REMARK   23  A    between atoms: _54  and  _55
REMARK   24  A    between atoms: _54  and  _57
REMARK   25  A    between atoms: _60  and  _62
REMARK   26  A    between atoms: _62  and  _63
REMARK   27  A    between atoms: _62  and  _65
REMARK   28  A    between atoms: _65  and  _66
REMARK   29  A    between atoms: _66  and  _67
REMARK   30  A    between atoms: _67  and  _68
REMARK   31  A    between atoms: _68  and  _69
REMARK   32  A    between atoms: _73  and  _75
REMARK   33  A    between atoms: _75  and  _76
REMARK   34  A    between atoms: _75  and  _78
REMARK   35  A    between atoms: _78  and  _79
REMARK   36  A    between atoms: _82  and  _84
REMARK   37  A    between atoms: _84  and  _85
REMARK   38  A    between atoms: _87  and  _89
REMARK   39  A    between atoms: _89  and  _90
REMARK   40  A    between atoms: _89  and  _92
REMARK   41  A    between atoms: _92  and  _93
REMARK   42  A    between atoms: _93  and  _94
REMARK   43  A    between atoms: _94  and  _95
REMARK   44  A    between atoms: _95  and  _96
REMARK   45  A    between atoms: _100  and  _102
REMARK   46  A    between atoms: _102  and  _103
REMARK   47  A    between atoms: _102  and  _105
REMARK   48  A    between atoms: _105  and  _106
REMARK   49  A    between atoms: _106  and  _107
REMARK   50  A    between atoms: _109  and  _111
REMARK   51  A    between atoms: _111  and  _112
REMARK   52  A    between atoms: _111  and  _114
REMARK   53  A    between atoms: _114  and  _115
REMARK   54  A    between atoms: _115  and  _116
REMARK   55  A    between atoms: _116  and  _117
REMARK   56  A    between atoms: _117  and  _118
REMARK   57  A    between atoms: _122  and  _124
REMARK   58  A    between atoms: _124  and  _125
REMARK   59  A    between atoms: _124  and  _127
REMARK   60  A    between atoms: _127  and  _128
REMARK   61  A    between atoms: _131  and  _133
REMARK   62  A    between atoms: _133  and  _134
REMARK   63  A    between atoms: _137  and  _139
REMARK   64  A    between atoms: _139  and  _140
REMARK   65  A    between atoms: _139  and  _142
REMARK   66  A    between atoms: _142  and  _143
REMARK   67  A    between atoms: _149  and  _151
REMARK   68  A    between atoms: _151  and  _152
REMARK   69  A    between atoms: _151  and  _154
REMARK   70  A    between atoms: _154  and  _155
REMARK   71  A    between atoms: _165  and  _167
REMARK   72  A    between atoms: _167  and  _168
REMARK   73  A    between atoms: _167  and  _170
REMARK   74  A    between atoms: _170  and  _171
REMARK   75  A    between atoms: _171  and  _172
REMARK   76  A    between atoms: _172  and  _173
REMARK   77  A    between atoms: _173  and  ZN_411
REMARK   78  A    between atoms: _175  and  _177
REMARK   79  A    between atoms: _177  and  _178
REMARK   80  A    between atoms: _177  and  _180
REMARK   81  A    between atoms: _180  and  _181
REMARK   82  A    between atoms: _184  and  _186
REMARK   83  A    between atoms: _186  and  _187
REMARK   84  A    between atoms: _186  and  _189
REMARK   85  A    between atoms: _189  and  _190
REMARK   86  A    between atoms: _193  and  _195
REMARK   87  A    between atoms: _195  and  _196
REMARK   88  A    between atoms: _195  and  _198
REMARK   89  A    between atoms: _198  and  _199
REMARK   90  A    between atoms: _199  and  _200
REMARK   91  A    between atoms: _200  and  _201
REMARK   92  A    between atoms: _201  and  _202
REMARK   93  A    between atoms: _206  and  _208
REMARK   94  A    between atoms: _208  and  _209
REMARK   95  A    between atoms: _208  and  _211
REMARK   96  A    between atoms: _211  and  _212
REMARK   97  A    between atoms: _215  and  _217
REMARK   98  A    between atoms: _217  and  _218
REMARK   99  A    between atoms: _221  and  _223
REMARK  100  A    between atoms: _223  and  _224
REMARK  101  A    between atoms: _223  and  _226
REMARK  102  A    between atoms: _226  and  _227
REMARK  103  A    between atoms: _230  and  _232
REMARK  104  A    between atoms: _232  and  _233
REMARK  105  A    between atoms: _232  and  _235
REMARK  106  A    between atoms: _235  and  _236
REMARK  107  A    between atoms: _236  and  _237
REMARK  108  A    between atoms: _242  and  _244
REMARK  109  A    between atoms: _244  and  _245
REMARK  110  A    between atoms: _244  and  _247
REMARK  111  A    between atoms: _247  and  _248
REMARK  112  A    between atoms: _248  and  _249
REMARK  113  A    between atoms: _249  and  _250
REMARK  114  A    between atoms: _249  and  _251
REMARK  115  A    between atoms: _250  and  ZN_411
REMARK  116  A    between atoms: _254  and  _256
REMARK  117  A    between atoms: _256  and  _257
REMARK  118  A    between atoms: _256  and  _259
REMARK  119  A    between atoms: _259  and  _260
REMARK  120  A    between atoms: _260  and  _261
REMARK  121  A    between atoms: _263  and  _265
REMARK  122  A    between atoms: _265  and  _266
REMARK  123  A    between atoms: _265  and  _268
REMARK  124  A    between atoms: _268  and  _269
REMARK  125  A    between atoms: _269  and  _270
REMARK  126  A    between atoms: _270  and  _271
REMARK  127  A    between atoms: _280  and  _282
REMARK  128  A    between atoms: _282  and  _283
REMARK  129  A    between atoms: _282  and  _285
REMARK  130  A    between atoms: _285  and  _286
REMARK  131  A    between atoms: _289  and  _291
REMARK  132  A    between atoms: _291  and  _292
REMARK  133  A    between atoms: _291  and  _294
REMARK  134  A    between atoms: _294  and  _295
REMARK  135  A    between atoms: _301  and  _303
REMARK  136  A    between atoms: _303  and  _304
REMARK  137  A    between atoms: _303  and  _306
REMARK  138  A    between atoms: _306  and  _307
REMARK  139  A    between atoms: _307  and  _308
REMARK  140  A    between atoms: _310  and  _312
REMARK  141  A    between atoms: _312  and  _313
REMARK  142  A    between atoms: _312  and  _315
REMARK  143  A    between atoms: _315  and  _316
REMARK  144  A    between atoms: _322  and  _324
REMARK  145  A    between atoms: _324  and  _325
REMARK  146  A    between atoms: _324  and  _327
REMARK  147  A    between atoms: _327  and  _328
REMARK  148  A    between atoms: _330  and  _332
REMARK  149  A    between atoms: _332  and  _333
REMARK  150  A    between atoms: _332  and  _335
REMARK  151  A    between atoms: _335  and  _336
REMARK  152  A    between atoms: _339  and  _341
REMARK  153  A    between atoms: _341  and  _342
REMARK  154  A    between atoms: _341  and  _344
REMARK  155  A    between atoms: _344  and  _345
REMARK  156  A    between atoms: _351  and  _353
REMARK  157  A    between atoms: _353  and  _354
REMARK  158  A    between atoms: _353  and  _356
REMARK  159  A    between atoms: _356  and  _357
REMARK  160  A    between atoms: _360  and  _362
REMARK  161  A    between atoms: _362  and  _363
REMARK  162  A    between atoms: _362  and  _365
REMARK  163  A    between atoms: _365  and  _366
REMARK  164  A    between atoms: _372  and  _374
REMARK  165  A    between atoms: _374  and  _375
REMARK  166  A    between atoms: _374  and  _377
REMARK  167  A    between atoms: _377  and  _378
REMARK  168  A    between atoms: _381  and  _383
REMARK  169  A    between atoms: _383  and  _384
REMARK  170  A    between atoms: _383  and  _386
REMARK  171  A    between atoms: _386  and  _387
REMARK  172  A    between atoms: _387  and  _388
REMARK  173  A    between atoms: _388  and  _389
REMARK  174  A    between atoms: _389  and  ZN_411
REMARK  175  A    between atoms: _391  and  _393
REMARK  176  A    between atoms: _393  and  _394
REMARK  177  A    between atoms: _393  and  _396
REMARK  178  A    between atoms: _396  and  _397
REMARK  179  A    between atoms: _400  and  _402
REMARK  180  A    between atoms: _402  and  _403
REMARK  181  A    between atoms: _402  and  _405
REMARK  182  A    between atoms: _405  and  _406
REMARK                            x       y       z     vdW  Elec       q    Type
REMARK                         _______ _______ _______ _____ _____    ______ ____
ROOT
ATOM      1  CA  ILE A   1      40.426  23.950  66.677  0.00  0.00    +0.133 C 
ENDROOT
BRANCH   1   2
ATOM      2  N   ILE A   1      39.367  23.413  67.526  0.00  0.00    -0.239 NA
ATOM      3  H   ILE A   1      38.458  23.918  67.525  0.00  0.00    +0.142 HD
ENDBRANCH   1   2
BRANCH   1   4
ATOM      4  CB  ILE A   1      41.585  24.518  67.511  0.00  0.00    +0.023 C 
ATOM      5  CG2 ILE A   1      42.913  24.351  66.778  0.00  0.00    +0.002 C 
BRANCH   4   6
ATOM      6  CG1 ILE A   1      41.303  25.990  67.821  0.00  0.00    +0.002 C 
ATOM      7  CD1 ILE A   1      42.420  26.683  68.587  0.00  0.00    +0.000 C 
ENDBRANCH   4   6
ENDBRANCH   1   4
BRANCH   1   8
ATOM      8  C   ILE A   1      40.957  22.953  65.679  0.00  0.00    +0.224 C 
ATOM      9  O   ILE A   1      40.769  23.210  64.471  0.00  0.00    -0.287 OA
ENDBRANCH   1   8
TORSDOF 4
REMARK  Name = ../refined-set-2016/2za0/2za0_pocket.pdb
REMARK  182 active torsions:
REMARK  status: ('A' for Active; 'I' for Inactive)
REMARK    1  A    between atoms: _1  and  _3
REMARK    2  A    between atoms: _3  and  _4
REMARK    3  A    between atoms: _3  and  _6
REMARK    4  A    between atoms: _6  and  _7
REMARK    5  A    between atoms: _7  and  _8
REMARK    6  A    between atoms: _8  and  _9
REMARK    7  A    between atoms: _18  and  _20
REMARK    8  A    between atoms: _20  and  _21
REMARK    9  A    between atoms: _20  and  _23
REMARK   10  A    between atoms: _23  and  _24
REMARK   11  A    between atoms: _28  and  ZN_411
REMARK   12  A    between atoms: _29  and  _31
REMARK   13  A    between atoms: _31  and  _32
REMARK   14  A    between atoms: _31  and  _34
REMARK   15  A    between atoms: _34  and  _35
REMARK   16  A    between atoms: _38  and  _40
REMARK   17  A    between atoms: _40  and  _41
REMARK   18  A    between atoms: _43  and  _45
REMARK   19  A    between atoms: _45  and  _46
REMARK   20  A    between atoms: _45  and  _48
REMARK   21  A    between atoms: _48  and  _49
REMARK   22  A    between atoms: _52  and  _54
REMARK   23  A    between atoms: _54  and  _55
REMARK   24  A    between atoms: _54  and  _57
REMARK   25  A    between atoms: _60  and  _62
REMARK   26  A    between atoms: _62  and  _63
REMARK   27  A    between atoms: _62  and  _65
REMARK   28  A    between atoms: _65  and  _66
REMARK   29  A    between atoms: _66  and  _67
REMARK   30  A    between atoms: _67  and  _68
REMARK   31  A    between atoms: _68  and  _69
REMARK   32  A    between atoms: _73  and  _75
REMARK   33  A    between atoms: _75  and  _76
REMARK   34  A    between atoms: _75  and  _78
REMARK   35  A    between atoms: _78  and  _79
REMARK   36  A    between atoms: _82  and  _84
REMARK   37  A    between atoms: _84  and  _85
REMARK   38  A    between atoms: _87  and  _89
REMARK   39  A    between atoms: _89  and  _90
REMARK   40  A    between atoms: _89  and  _92
REMARK   41  A    between atoms: _92  and  _93
REMARK   42  A    between atoms: _93  and  _94
REMARK   43  A    between atoms: _94  and  _95
REMARK   44  A    between atoms: _95  and  _96
REMARK   45  A    between atoms: _100  and  _102
REMARK   46  A    between atoms: _102  and  _103
REMARK   47  A    between atoms: _102  and  _105
REMARK   48  A    between atoms: _105  and  _106
REMARK   49  A    between atoms: _106  and  _107
REMARK   50  A    between atoms: _109  and  _111
REMARK   51  A    between atoms: _111  and  _112
REMARK   52  A    between atoms: _111  and  _114
REMARK   53  A    between atoms: _114  and  _115
REMARK   54  A    between atoms: _115  and  _116
REMARK   55  A    between atoms: _116  and  _117
REMARK   56  A    between atoms: _117  and  _118
REMARK   57  A    between atoms: _122  and  _124
REMARK   58  A    between atoms: _124  and  _125
REMARK   59  A    between atoms: _124  and  _127
REMARK   60  A    between atoms: _127  and  _128
REMARK   61  A    between atoms: _131  and  _133
REMARK   62  A    between atoms: _133  and  _134
REMARK   63  A    between atoms: _137  and  _139
REMARK   64  A    between atoms: _139  and  _140
REMARK   65  A    between atoms: _139  and  _142
REMARK   66  A    between atoms: _142  and  _143
REMARK   67  A    between atoms: _149  and  _151
REMARK   68  A    between atoms: _151  and  _152
REMARK   69  A    between atoms: _151  and  _154
REMARK   70  A    between atoms: _154  and  _155
REMARK   71  A    between atoms: _165  and  _167
REMARK   72  A    between atoms: _167  and  _168
REMARK   73  A    between atoms: _167  and  _170
REMARK   74  A    between atoms: _170  and  _171
REMARK   75  A    between atoms: _171  and  _172
REMARK   76  A    between atoms: _172  and  _173
REMARK   77  A    between atoms: _173  and  ZN_411
REMARK   78  A    between atoms: _175  and  _177
REMARK   79  A    between atoms: _177  and  _178
REMARK   80  A    between atoms: _177  and  _180
REMARK   81  A    between atoms: _180  and  _181
REMARK   82  A    between atoms: _184  and  _186
REMARK   83  A    between atoms: _186  and  _187
REMARK   84  A    between atoms: _186  and  _189
REMARK   85  A    between atoms: _189  and  _190
REMARK   86  A    between atoms: _193  and  _195
REMARK   87  A    between atoms: _195  and  _196
REMARK   88  A    between atoms: _195  and  _198
REMARK   89  A    between atoms: _198  and  _199
REMARK   90  A    between atoms: _199  and  _200
REMARK   91  A    between atoms: _200  and  _201
REMARK   92  A    between atoms: _201  and  _202
REMARK   93  A    between atoms: _206  and  _208
REMARK   94  A    between atoms: _208  and  _209
REMARK   95  A    between atoms: _208  and  _211
REMARK   96  A    between atoms: _211  and  _212
REMARK   97  A    between atoms: _215  and  _217
REMARK   98  A    between atoms: _217  and  _218
REMARK   99  A    between atoms: _221  and  _223
REMARK  100  A    between atoms: _223  and  _224
REMARK  101  A    between atoms: _223  and  _226
REMARK  102  A    between atoms: _226  and  _227
REMARK  103  A    between atoms: _230  and  _232
REMARK  104  A    between atoms: _232  and  _233
REMARK  105  A    between atoms: _232  and  _235
REMARK  106  A    between atoms: _235  and  _236
REMARK  107  A    between atoms: _236  and  _237
REMARK  108  A    between atoms: _242  and  _244
REMARK  109  A    between atoms: _244  and  _245
REMARK  110  A    between atoms: _244  and  _247
REMARK  111  A    between atoms: _247  and  _248
REMARK  112  A    between atoms: _248  and  _249
REMARK  113  A    between atoms: _249  and  _250
REMARK  114  A    between atoms: _249  and  _251
REMARK  115  A    between atoms: _250  and  ZN_411
REMARK  116  A    between atoms: _254  and  _256
REMARK  117  A    between atoms: _256  and  _257
REMARK  118  A    between atoms: _256  and  _259
REMARK  119  A    between atoms: _259  and  _260
REMARK  120  A    between atoms: _260  and  _261
REMARK  121  A    between atoms: _263  and  _265
REMARK  122  A    between atoms: _265  and  _266
REMARK  123  A    between atoms: _265  and  _268
REMARK  124  A    between atoms: _268  and  _269
REMARK  125  A    between atoms: _269  and  _270
REMARK  126  A    between atoms: _270  and  _271
REMARK  127  A    between atoms: _280  and  _282
REMARK  128  A    between atoms: _282  and  _283
REMARK  129  A    between atoms: _282  and  _285
REMARK  130  A    between atoms: _285  and  _286
REMARK  131  A    between atoms: _289  and  _291
REMARK  132  A    between atoms: _291  and  _292
REMARK  133  A    between atoms: _291  and  _294
REMARK  134  A    between atoms: _294  and  _295
REMARK  135  A    between atoms: _301  and  _303
REMARK  136  A    between atoms: _303  and  _304
REMARK  137  A    between atoms: _303  and  _306
REMARK  138  A    between atoms: _306  and  _307
REMARK  139  A    between atoms: _307  and  _308
REMARK  140  A    between atoms: _310  and  _312
REMARK  141  A    between atoms: _312  and  _313
REMARK  142  A    between atoms: _312  and  _315
REMARK  143  A    between atoms: _315  and  _316
REMARK  144  A    between atoms: _322  and  _324
REMARK  145  A    between atoms: _324  and  _325
REMARK  146  A    between atoms: _324  and  _327
REMARK  147  A    between atoms: _327  and  _328
REMARK  148  A    between atoms: _330  and  _332
REMARK  149  A    between atoms: _332  and  _333
REMARK  150  A    between atoms: _332  and  _335
REMARK  151  A    between atoms: _335  and  _336
REMARK  152  A    between atoms: _339  and  _341
REMARK  153  A    between atoms: _341  and  _342
REMARK  154  A    between atoms: _341  and  _344
REMARK  155  A    between atoms: _344  and  _345
REMARK  156  A    between atoms: _351  and  _353
REMARK  157  A    between atoms: _353  and  _354
REMARK  158  A    between atoms: _353  and  _356
REMARK  159  A    between atoms: _356  and  _357
REMARK  160  A    between atoms: _360  and  _362
REMARK  161  A    between atoms: _362  and  _363
REMARK  162  A    between atoms: _362  and  _365
REMARK  163  A    between atoms: _365  and  _366
REMARK  164  A    between atoms: _372  and  _374
REMARK  165  A    between atoms: _374  and  _375
REMARK  166  A    between atoms: _374  and  _377
REMARK  167  A    between atoms: _377  and  _378
REMARK  168  A    between atoms: _381  and  _383
REMARK  169  A    between atoms: _383  and  _384
REMARK  170  A    between atoms: _383  and  _386
REMARK  171  A    between atoms: _386  and  _387
REMARK  172  A    between atoms: _387  and  _388
REMARK  173  A    between atoms: _388  and  _389
REMARK  174  A    between atoms: _389  and  ZN_411
REMARK  175  A    between atoms: _391  and  _393
REMARK  176  A    between atoms: _393  and  _394
REMARK  177  A    between atoms: _393  and  _396
REMARK  178  A    between atoms: _396  and  _397
REMARK  179  A    between atoms: _400  and  _402
REMARK  180  A    between atoms: _402  and  _403
REMARK  181  A    between atoms: _402  and  _405
REMARK  182  A    between atoms: _405  and  _406
REMARK                            x       y       z     vdW  Elec       q    Type
REMARK                         _______ _______ _______ _____ _____    ______ ____
ROOT
ATOM      1  CA  MET A   1      36.124  33.959  51.962  0.00  0.00    +0.134 C 
ENDROOT
BRANCH   1   2
ATOM      2  N   MET A   1      35.413  33.036  51.069  0.00  0.00    -0.239 NA
ATOM      3  H   MET A   1      35.941  32.489  50.359  0.00  0.00    +0.142 HD
ENDBRANCH   1   2
BRANCH   1   4
ATOM      4  C   MET A   1      36.663  35.201  51.282  0.00  0.00    +0.224 C 
ATOM      5  O   MET A   1      37.319  35.117  50.254  0.00  0.00    -0.287 OA
ENDBRANCH   1   4
BRANCH   1   6
ATOM      6  CB  MET A   1      37.282  33.235  52.672  0.00  0.00    +0.037 C 
BRANCH   6   7
ATOM      7  CG  MET A   1      37.958  34.053  53.801  0.00  0.00    +0.059 C 
BRANCH   7   8
ATOM      8  SD  MET A   1      39.132  35.331  53.264  0.00  0.00    -0.139 S 
ATOM      9  CE  MET A   1      40.739  34.442  53.550  0.00  0.00    +0.069 C 
ENDBRANCH   7   8
ENDBRANCH   6   7
ENDBRANCH   1   6
TORSDOF 5
REMARK  Name = ../refined-set-2016/2za0/2za0_pocket.pdb
REMARK  182 active torsions:
REMARK  status: ('A' for Active; 'I' for Inactive)
REMARK    1  A    between atoms: _1  and  _3
REMARK    2  A    between atoms: _3  and  _4
REMARK    3  A    between atoms: _3  and  _6
REMARK    4  A    between atoms: _6  and  _7
REMARK    5  A    between atoms: _7  and  _8
REMARK    6  A    between atoms: _8  and  _9
REMARK    7  A    between atoms: _18  and  _20
REMARK    8  A    between atoms: _20  and  _21
REMARK    9  A    between atoms: _20  and  _23
REMARK   10  A    between atoms: _23  and  _24
REMARK   11  A    between atoms: _28  and  ZN_411
REMARK   12  A    between atoms: _29  and  _31
REMARK   13  A    between atoms: _31  and  _32
REMARK   14  A    between atoms: _31  and  _34
REMARK   15  A    between atoms: _34  and  _35
REMARK   16  A    between atoms: _38  and  _40
REMARK   17  A    between atoms: _40  and  _41
REMARK   18  A    between atoms: _43  and  _45
REMARK   19  A    between atoms: _45  and  _46
REMARK   20  A    between atoms: _45  and  _48
REMARK   21  A    between atoms: _48  and  _49
REMARK   22  A    between atoms: _52  and  _54
REMARK   23  A    between atoms: _54  and  _55
REMARK   24  A    between atoms: _54  and  _57
REMARK   25  A    between atoms: _60  and  _62
REMARK   26  A    between atoms: _62  and  _63
REMARK   27  A    between atoms: _62  and  _65
REMARK   28  A    between atoms: _65  and  _66
REMARK   29  A    between atoms: _66  and  _67
REMARK   30  A    between atoms: _67  and  _68
REMARK   31  A    between atoms: _68  and  _69
REMARK   32  A    between atoms: _73  and  _75
REMARK   33  A    between atoms: _75  and  _76
REMARK   34  A    between atoms: _75  and  _78
REMARK   35  A    between atoms: _78  and  _79
REMARK   36  A    between atoms: _82  and  _84
REMARK   37  A    between atoms: _84  and  _85
REMARK   38  A    between atoms: _87  and  _89
REMARK   39  A    between atoms: _89  and  _90
REMARK   40  A    between atoms: _89  and  _92
REMARK   41  A    between atoms: _92  and  _93
REMARK   42  A    between atoms: _93  and  _94
REMARK   43  A    between atoms: _94  and  _95
REMARK   44  A    between atoms: _95  and  _96
REMARK   45  A    between atoms: _100  and  _102
REMARK   46  A    between atoms: _102  and  _103
REMARK   47  A    between atoms: _102  and  _105
REMARK   48  A    between atoms: _105  and  _106
REMARK   49  A    between atoms: _106  and  _107
REMARK   50  A    between atoms: _109  and  _111
REMARK   51  A    between atoms: _111  and  _112
REMARK   52  A    between atoms: _111  and  _114
REMARK   53  A    between atoms: _114  and  _115
REMARK   54  A    between atoms: _115  and  _116
REMARK   55  A    between atoms: _116  and  _117
REMARK   56  A    between atoms: _117  and  _118
REMARK   57  A    between atoms: _122  and  _124
REMARK   58  A    between atoms: _124  and  _125
REMARK   59  A    between atoms: _124  and  _127
REMARK   60  A    between atoms: _127  and  _128
REMARK   61  A    between atoms: _131  and  _133
REMARK   62  A    between atoms: _133  and  _134
REMARK   63  A    between atoms: _137  and  _139
REMARK   64  A    between atoms: _139  and  _140
REMARK   65  A    between atoms: _139  and  _142
REMARK   66  A    between atoms: _142  and  _143
REMARK   67  A    between atoms: _149  and  _151
REMARK   68  A    between atoms: _151  and  _152
REMARK   69  A    between atoms: _151  and  _154
REMARK   70  A    between atoms: _154  and  _155
REMARK   71  A    between atoms: _165  and  _167
REMARK   72  A    between atoms: _167  and  _168
REMARK   73  A    between atoms: _167  and  _170
REMARK   74  A    between atoms: _170  and  _171
REMARK   75  A    between atoms: _171  and  _172
REMARK   76  A    between atoms: _172  and  _173
REMARK   77  A    between atoms: _173  and  ZN_411
REMARK   78  A    between atoms: _175  and  _177
REMARK   79  A    between atoms: _177  and  _178
REMARK   80  A    between atoms: _177  and  _180
REMARK   81  A    between atoms: _180  and  _181
REMARK   82  A    between atoms: _184  and  _186
REMARK   83  A    between atoms: _186  and  _187
REMARK   84  A    between atoms: _186  and  _189
REMARK   85  A    between atoms: _189  and  _190
REMARK   86  A    between atoms: _193  and  _195
REMARK   87  A    between atoms: _195  and  _196
REMARK   88  A    between atoms: _195  and  _198
REMARK   89  A    between atoms: _198  and  _199
REMARK   90  A    between atoms: _199  and  _200
REMARK   91  A    between atoms: _200  and  _201
REMARK   92  A    between atoms: _201  and  _202
REMARK   93  A    between atoms: _206  and  _208
REMARK   94  A    between atoms: _208  and  _209
REMARK   95  A    between atoms: _208  and  _211
REMARK   96  A    between atoms: _211  and  _212
REMARK   97  A    between atoms: _215  and  _217
REMARK   98  A    between atoms: _217  and  _218
REMARK   99  A    between atoms: _221  and  _223
REMARK  100  A    between atoms: _223  and  _224
REMARK  101  A    between atoms: _223  and  _226
REMARK  102  A    between atoms: _226  and  _227
REMARK  103  A    between atoms: _230  and  _232
REMARK  104  A    between atoms: _232  and  _233
REMARK  105  A    between atoms: _232  and  _235
REMARK  106  A    between atoms: _235  and  _236
REMARK  107  A    between atoms: _236  and  _237
REMARK  108  A    between atoms: _242  and  _244
REMARK  109  A    between atoms: _244  and  _245
REMARK  110  A    between atoms: _244  and  _247
REMARK  111  A    between atoms: _247  and  _248
REMARK  112  A    between atoms: _248  and  _249
REMARK  113  A    between atoms: _249  and  _250
REMARK  114  A    between atoms: _249  and  _251
REMARK  115  A    between atoms: _250  and  ZN_411
REMARK  116  A    between atoms: _254  and  _256
REMARK  117  A    between atoms: _256  and  _257
REMARK  118  A    between atoms: _256  and  _259
REMARK  119  A    between atoms: _259  and  _260
REMARK  120  A    between atoms: _260  and  _261
REMARK  121  A    between atoms: _263  and  _265
REMARK  122  A    between atoms: _265  and  _266
REMARK  123  A    between atoms: _265  and  _268
REMARK  124  A    between atoms: _268  and  _269
REMARK  125  A    between atoms: _269  and  _270
REMARK  126  A    between atoms: _270  and  _271
REMARK  127  A    between atoms: _280  and  _282
REMARK  128  A    between atoms: _282  and  _283
REMARK  129  A    between atoms: _282  and  _285
REMARK  130  A    between atoms: _285  and  _286
REMARK  131  A    between atoms: _289  and  _291
REMARK  132  A    between atoms: _291  and  _292
REMARK  133  A    between atoms: _291  and  _294
REMARK  134  A    between atoms: _294  and  _295
REMARK  135  A    between atoms: _301  and  _303
REMARK  136  A    between atoms: _303  and  _304
REMARK  137  A    between atoms: _303  and  _306
REMARK  138  A    between atoms: _306  and  _307
REMARK  139  A    between atoms: _307  and  _308
REMARK  140  A    between atoms: _310  and  _312
REMARK  141  A    between atoms: _312  and  _313
REMARK  142  A    between atoms: _312  and  _315
REMARK  143  A    between atoms: _315  and  _316
REMARK  144  A    between atoms: _322  and  _324
REMARK  145  A    between atoms: _324  and  _325
REMARK  146  A    between atoms: _324  and  _327
REMARK  147  A    between atoms: _327  and  _328
REMARK  148  A    between atoms: _330  and  _332
REMARK  149  A    between atoms: _332  and  _333
REMARK  150  A    between atoms: _332  and  _335
REMARK  151  A    between atoms: _335  and  _336
REMARK  152  A    between atoms: _339  and  _341
REMARK  153  A    between atoms: _341  and  _342
REMARK  154  A    between atoms: _341  and  _344
REMARK  155  A    between atoms: _344  and  _345
REMARK  156  A    between atoms: _351  and  _353
REMARK  157  A    between atoms: _353  and  _354
REMARK  158  A    between atoms: _353  and  _356
REMARK  159  A    between atoms: _356  and  _357
REMARK  160  A    between atoms: _360  and  _362
REMARK  161  A    between atoms: _362  and  _363
REMARK  162  A    between atoms: _362  and  _365
REMARK  163  A    between atoms: _365  and  _366
REMARK  164  A    between atoms: _372  and  _374
REMARK  165  A    between atoms: _374  and  _375
REMARK  166  A    between atoms: _374  and  _377
REMARK  167  A    between atoms: _377  and  _378
REMARK  168  A    between atoms: _381  and  _383
REMARK  169  A    between atoms: _383  and  _384
REMARK  170  A    between atoms: _383  and  _386
REMARK  171  A    between atoms: _386  and  _387
REMARK  172  A    between atoms: _387  and  _388
REMARK  173  A    between atoms: _388  and  _389
REMARK  174  A    between atoms: _389  and  ZN_411
REMARK  175  A    between atoms: _391  and  _393
REMARK  176  A    between atoms: _393  and  _394
REMARK  177  A    between atoms: _393  and  _396
REMARK  178  A    between atoms: _396  and  _397
REMARK  179  A    between atoms: _400  and  _402
REMARK  180  A    between atoms: _402  and  _403
REMARK  181  A    between atoms: _402  and  _405
REMARK  182  A    between atoms: _405  and  _406
REMARK                            x       y       z     vdW  Elec       q    Type
REMARK                         _______ _______ _______ _____ _____    ______ ____
ROOT
ATOM      1  NE  ARG A   1      43.798  37.666  52.683  0.00  0.00    -0.265 N 
ATOM      2  HE  ARG A   1      44.357  37.473  53.538  0.00  0.00    +0.259 HD
ATOM      3  CZ  ARG A   1      43.858  36.777  51.686  0.00  0.00    +0.342 C 
ATOM      4  NH2 ARG A   1      44.740  35.760  51.742  0.00  0.00    -0.292 N 
ATOM      5 HH21 ARG A   1      45.374  35.666  52.561  0.00  0.00    +0.255 HD
ATOM      6 HH22 ARG A   1      44.786  35.069  50.966  0.00  0.00    +0.255 HD
ATOM      7  NH1 ARG A   1      43.134  36.960  50.569  0.00  0.00    -0.292 N 
ATOM      8 HH11 ARG A   1      42.523  37.796  50.477  0.00  0.00    +0.255 HD
ATOM      9 HH12 ARG A   1      43.185  36.265  49.797  0.00  0.00    +0.255 HD
ENDROOT
BRANCH   1  10
ATOM     10  CD  ARG A   1      42.996  38.898  52.653  0.00  0.00    +0.174 C 
BRANCH  10  11
ATOM     11  CG  ARG A   1      41.555  38.638  53.048  0.00  0.00    +0.045 C 
BRANCH  11  12
ATOM     12  CB  ARG A   1      40.788  39.970  53.032  0.00  0.00    +0.029 C 
BRANCH  12  13
ATOM     13  CA  ARG A   1      39.308  39.805  53.337  0.00  0.00    +0.133 C 
BRANCH  13  14
ATOM     14  N   ARG A   1      38.666  39.014  52.282  0.00  0.00    -0.239 NA
ATOM     15  H   ARG A   1      39.082  38.965  51.330  0.00  0.00    +0.142 HD
ENDBRANCH  13  14
BRANCH  13  16
ATOM     16  C   ARG A   1      38.623  41.179  53.389  0.00  0.00    +0.224 C 
ATOM     17  O   ARG A   1      38.345  41.792  52.336  0.00  0.00    -0.287 OA
ENDBRANCH  13  16
ENDBRANCH  12  13
ENDBRANCH  11  12
ENDBRANCH  10  11
ENDBRANCH   1  10
TORSDOF 6
REMARK  Name = ../refined-set-2016/2za0/2za0_pocket.pdb
REMARK  182 active torsions:
REMARK  status: ('A' for Active; 'I' for Inactive)
REMARK    1  A    between atoms: _1  and  _3
REMARK    2  A    between atoms: _3  and  _4
REMARK    3  A    between atoms: _3  and  _6
REMARK    4  A    between atoms: _6  and  _7
REMARK    5  A    between atoms: _7  and  _8
REMARK    6  A    between atoms: _8  and  _9
REMARK    7  A    between atoms: _18  and  _20
REMARK    8  A    between atoms: _20  and  _21
REMARK    9  A    between atoms: _20  and  _23
REMARK   10  A    between atoms: _23  and  _24
REMARK   11  A    between atoms: _28  and  ZN_411
REMARK   12  A    between atoms: _29  and  _31
REMARK   13  A    between atoms: _31  and  _32
REMARK   14  A    between atoms: _31  and  _34
REMARK   15  A    between atoms: _34  and  _35
REMARK   16  A    between atoms: _38  and  _40
REMARK   17  A    between atoms: _40  and  _41
REMARK   18  A    between atoms: _43  and  _45
REMARK   19  A    between atoms: _45  and  _46
REMARK   20  A    between atoms: _45  and  _48
REMARK   21  A    between atoms: _48  and  _49
REMARK   22  A    between atoms: _52  and  _54
REMARK   23  A    between atoms: _54  and  _55
REMARK   24  A    between atoms: _54  and  _57
REMARK   25  A    between atoms: _60  and  _62
REMARK   26  A    between atoms: _62  and  _63
REMARK   27  A    between atoms: _62  and  _65
REMARK   28  A    between atoms: _65  and  _66
REMARK   29  A    between atoms: _66  and  _67
REMARK   30  A    between atoms: _67  and  _68
REMARK   31  A    between atoms: _68  and  _69
REMARK   32  A    between atoms: _73  and  _75
REMARK   33  A    between atoms: _75  and  _76
REMARK   34  A    between atoms: _75  and  _78
REMARK   35  A    between atoms: _78  and  _79
REMARK   36  A    between atoms: _82  and  _84
REMARK   37  A    between atoms: _84  and  _85
REMARK   38  A    between atoms: _87  and  _89
REMARK   39  A    between atoms: _89  and  _90
REMARK   40  A    between atoms: _89  and  _92
REMARK   41  A    between atoms: _92  and  _93
REMARK   42  A    between atoms: _93  and  _94
REMARK   43  A    between atoms: _94  and  _95
REMARK   44  A    between atoms: _95  and  _96
REMARK   45  A    between atoms: _100  and  _102
REMARK   46  A    between atoms: _102  and  _103
REMARK   47  A    between atoms: _102  and  _105
REMARK   48  A    between atoms: _105  and  _106
REMARK   49  A    between atoms: _106  and  _107
REMARK   50  A    between atoms: _109  and  _111
REMARK   51  A    between atoms: _111  and  _112
REMARK   52  A    between atoms: _111  and  _114
REMARK   53  A    between atoms: _114  and  _115
REMARK   54  A    between atoms: _115  and  _116
REMARK   55  A    between atoms: _116  and  _117
REMARK   56  A    between atoms: _117  and  _118
REMARK   57  A    between atoms: _122  and  _124
REMARK   58  A    between atoms: _124  and  _125
REMARK   59  A    between atoms: _124  and  _127
REMARK   60  A    between atoms: _127  and  _128
REMARK   61  A    between atoms: _131  and  _133
REMARK   62  A    between atoms: _133  and  _134
REMARK   63  A    between atoms: _137  and  _139
REMARK   64  A    between atoms: _139  and  _140
REMARK   65  A    between atoms: _139  and  _142
REMARK   66  A    between atoms: _142  and  _143
REMARK   67  A    between atoms: _149  and  _151
REMARK   68  A    between atoms: _151  and  _152
REMARK   69  A    between atoms: _151  and  _154
REMARK   70  A    between atoms: _154  and  _155
REMARK   71  A    between atoms: _165  and  _167
REMARK   72  A    between atoms: _167  and  _168
REMARK   73  A    between atoms: _167  and  _170
REMARK   74  A    between atoms: _170  and  _171
REMARK   75  A    between atoms: _171  and  _172
REMARK   76  A    between atoms: _172  and  _173
REMARK   77  A    between atoms: _173  and  ZN_411
REMARK   78  A    between atoms: _175  and  _177
REMARK   79  A    between atoms: _177  and  _178
REMARK   80  A    between atoms: _177  and  _180
REMARK   81  A    between atoms: _180  and  _181
REMARK   82  A    between atoms: _184  and  _186
REMARK   83  A    between atoms: _186  and  _187
REMARK   84  A    between atoms: _186  and  _189
REMARK   85  A    between atoms: _189  and  _190
REMARK   86  A    between atoms: _193  and  _195
REMARK   87  A    between atoms: _195  and  _196
REMARK   88  A    between atoms: _195  and  _198
REMARK   89  A    between atoms: _198  and  _199
REMARK   90  A    between atoms: _199  and  _200
REMARK   91  A    between atoms: _200  and  _201
REMARK   92  A    between atoms: _201  and  _202
REMARK   93  A    between atoms: _206  and  _208
REMARK   94  A    between atoms: _208  and  _209
REMARK   95  A    between atoms: _208  and  _211
REMARK   96  A    between atoms: _211  and  _212
REMARK   97  A    between atoms: _215  and  _217
REMARK   98  A    between atoms: _217  and  _218
REMARK   99  A    between atoms: _221  and  _223
REMARK  100  A    between atoms: _223  and  _224
REMARK  101  A    between atoms: _223  and  _226
REMARK  102  A    between atoms: _226  and  _227
REMARK  103  A    between atoms: _230  and  _232
REMARK  104  A    between atoms: _232  and  _233
REMARK  105  A    between atoms: _232  and  _235
REMARK  106  A    between atoms: _235  and  _236
REMARK  107  A    between atoms: _236  and  _237
REMARK  108  A    between atoms: _242  and  _244
REMARK  109  A    between atoms: _244  and  _245
REMARK  110  A    between atoms: _244  and  _247
REMARK  111  A    between atoms: _247  and  _248
REMARK  112  A    between atoms: _248  and  _249
REMARK  113  A    between atoms: _249  and  _250
REMARK  114  A    between atoms: _249  and  _251
REMARK  115  A    between atoms: _250  and  ZN_411
REMARK  116  A    between atoms: _254  and  _256
REMARK  117  A    between atoms: _256  and  _257
REMARK  118  A    between atoms: _256  and  _259
REMARK  119  A    between atoms: _259  and  _260
REMARK  120  A    between atoms: _260  and  _261
REMARK  121  A    between atoms: _263  and  _265
REMARK  122  A    between atoms: _265  and  _266
REMARK  123  A    between atoms: _265  and  _268
REMARK  124  A    between atoms: _268  and  _269
REMARK  125  A    between atoms: _269  and  _270
REMARK  126  A    between atoms: _270  and  _271
REMARK  127  A    between atoms: _280  and  _282
REMARK  128  A    between atoms: _282  and  _283
REMARK  129  A    between atoms: _282  and  _285
REMARK  130  A    between atoms: _285  and  _286
REMARK  131  A    between atoms: _289  and  _291
REMARK  132  A    between atoms: _291  and  _292
REMARK  133  A    between atoms: _291  and  _294
REMARK  134  A    between atoms: _294  and  _295
REMARK  135  A    between atoms: _301  and  _303
REMARK  136  A    between atoms: _303  and  _304
REMARK  137  A    between atoms: _303  and  _306
REMARK  138  A    between atoms: _306  and  _307
REMARK  139  A    between atoms: _307  and  _308
REMARK  140  A    between atoms: _310  and  _312
REMARK  141  A    between atoms: _312  and  _313
REMARK  142  A    between atoms: _312  and  _315
REMARK  143  A    between atoms: _315  and  _316
REMARK  144  A    between atoms: _322  and  _324
REMARK  145  A    between atoms: _324  and  _325
REMARK  146  A    between atoms: _324  and  _327
REMARK  147  A    between atoms: _327  and  _328
REMARK  148  A    between atoms: _330  and  _332
REMARK  149  A    between atoms: _332  and  _333
REMARK  150  A    between atoms: _332  and  _335
REMARK  151  A    between atoms: _335  and  _336
REMARK  152  A    between atoms: _339  and  _341
REMARK  153  A    between atoms: _341  and  _342
REMARK  154  A    between atoms: _341  and  _344
REMARK  155  A    between atoms: _344  and  _345
REMARK  156  A    between atoms: _351  and  _353
REMARK  157  A    between atoms: _353  and  _354
REMARK  158  A    between atoms: _353  and  _356
REMARK  159  A    between atoms: _356  and  _357
REMARK  160  A    between atoms: _360  and  _362
REMARK  161  A    between atoms: _362  and  _363
REMARK  162  A    between atoms: _362  and  _365
REMARK  163  A    between atoms: _365  and  _366
REMARK  164  A    between atoms: _372  and  _374
REMARK  165  A    between atoms: _374  and  _375
REMARK  166  A    between atoms: _374  and  _377
REMARK  167  A    between atoms: _377  and  _378
REMARK  168  A    between atoms: _381  and  _383
REMARK  169  A    between atoms: _383  and  _384
REMARK  170  A    between atoms: _383  and  _386
REMARK  171  A    between atoms: _386  and  _387
REMARK  172  A    between atoms: _387  and  _388
REMARK  173  A    between atoms: _388  and  _389
REMARK  174  A    between atoms: _389  and  ZN_411
REMARK  175  A    between atoms: _391  and  _393
REMARK  176  A    between atoms: _393  and  _394
REMARK  177  A    between atoms: _393  and  _396
REMARK  178  A    between atoms: _396  and  _397
REMARK  179  A    between atoms: _400  and  _402
REMARK  180  A    between atoms: _402  and  _403
REMARK  181  A    between atoms: _402  and  _405
REMARK  182  A    between atoms: _405  and  _406
REMARK                            x       y       z     vdW  Elec       q    Type
REMARK                         _______ _______ _______ _____ _____    ______ ____
ROOT
ATOM      1  CA  LEU A   1      35.853  33.612  65.743  0.00  0.00    +0.133 C 
ENDROOT
BRANCH   1   2
ATOM      2  N   LEU A   1      34.764  34.362  65.127  0.00  0.00    -0.239 NA
ATOM      3  H   LEU A   1      34.888  34.760  64.174  0.00  0.00    +0.142 HD
ENDBRANCH   1   2
BRANCH   1   4
ATOM      4  C   LEU A   1      37.068  34.518  65.794  0.00  0.00    +0.224 C 
ATOM      5  O   LEU A   1      37.395  35.183  64.814  0.00  0.00    -0.287 OA
ENDBRANCH   1   4
BRANCH   1   6
ATOM      6  CB  LEU A   1      36.198  32.347  64.938  0.00  0.00    +0.025 C 
BRANCH   6   7
ATOM      7  CG  LEU A   1      35.132  31.258  64.806  0.00  0.00    +0.002 C 
ATOM      8  CD2 LEU A   1      35.721  30.040  64.080  0.00  0.00    +0.000 C 
ATOM      9  CD1 LEU A   1      33.952  31.804  63.995  0.00  0.00    +0.000 C 
ENDBRANCH   6   7
ENDBRANCH   1   6
TORSDOF 4
REMARK  Name = ../refined-set-2016/2za0/2za0_pocket.pdb
REMARK  182 active torsions:
REMARK  status: ('A' for Active; 'I' for Inactive)
REMARK    1  A    between atoms: _1  and  _3
REMARK    2  A    between atoms: _3  and  _4
REMARK    3  A    between atoms: _3  and  _6
REMARK    4  A    between atoms: _6  and  _7
REMARK    5  A    between atoms: _7  and  _8
REMARK    6  A    between atoms: _8  and  _9
REMARK    7  A    between atoms: _18  and  _20
REMARK    8  A    between atoms: _20  and  _21
REMARK    9  A    between atoms: _20  and  _23
REMARK   10  A    between atoms: _23  and  _24
REMARK   11  A    between atoms: _28  and  ZN_411
REMARK   12  A    between atoms: _29  and  _31
REMARK   13  A    between atoms: _31  and  _32
REMARK   14  A    between atoms: _31  and  _34
REMARK   15  A    between atoms: _34  and  _35
REMARK   16  A    between atoms: _38  and  _40
REMARK   17  A    between atoms: _40  and  _41
REMARK   18  A    between atoms: _43  and  _45
REMARK   19  A    between atoms: _45  and  _46
REMARK   20  A    between atoms: _45  and  _48
REMARK   21  A    between atoms: _48  and  _49
REMARK   22  A    between atoms: _52  and  _54
REMARK   23  A    between atoms: _54  and  _55
REMARK   24  A    between atoms: _54  and  _57
REMARK   25  A    between atoms: _60  and  _62
REMARK   26  A    between atoms: _62  and  _63
REMARK   27  A    between atoms: _62  and  _65
REMARK   28  A    between atoms: _65  and  _66
REMARK   29  A    between atoms: _66  and  _67
REMARK   30  A    between atoms: _67  and  _68
REMARK   31  A    between atoms: _68  and  _69
REMARK   32  A    between atoms: _73  and  _75
REMARK   33  A    between atoms: _75  and  _76
REMARK   34  A    between atoms: _75  and  _78
REMARK   35  A    between atoms: _78  and  _79
REMARK   36  A    between atoms: _82  and  _84
REMARK   37  A    between atoms: _84  and  _85
REMARK   38  A    between atoms: _87  and  _89
REMARK   39  A    between atoms: _89  and  _90
REMARK   40  A    between atoms: _89  and  _92
REMARK   41  A    between atoms: _92  and  _93
REMARK   42  A    between atoms: _93  and  _94
REMARK   43  A    between atoms: _94  and  _95
REMARK   44  A    between atoms: _95  and  _96
REMARK   45  A    between atoms: _100  and  _102
REMARK   46  A    between atoms: _102  and  _103
REMARK   47  A    between atoms: _102  and  _105
REMARK   48  A    between atoms: _105  and  _106
REMARK   49  A    between atoms: _106  and  _107
REMARK   50  A    between atoms: _109  and  _111
REMARK   51  A    between atoms: _111  and  _112
REMARK   52  A    between atoms: _111  and  _114
REMARK   53  A    between atoms: _114  and  _115
REMARK   54  A    between atoms: _115  and  _116
REMARK   55  A    between atoms: _116  and  _117
REMARK   56  A    between atoms: _117  and  _118
REMARK   57  A    between atoms: _122  and  _124
REMARK   58  A    between atoms: _124  and  _125
REMARK   59  A    between atoms: _124  and  _127
REMARK   60  A    between atoms: _127  and  _128
REMARK   61  A    between atoms: _131  and  _133
REMARK   62  A    between atoms: _133  and  _134
REMARK   63  A    between atoms: _137  and  _139
REMARK   64  A    between atoms: _139  and  _140
REMARK   65  A    between atoms: _139  and  _142
REMARK   66  A    between atoms: _142  and  _143
REMARK   67  A    between atoms: _149  and  _151
REMARK   68  A    between atoms: _151  and  _152
REMARK   69  A    between atoms: _151  and  _154
REMARK   70  A    between atoms: _154  and  _155
REMARK   71  A    between atoms: _165  and  _167
REMARK   72  A    between atoms: _167  and  _168
REMARK   73  A    between atoms: _167  and  _170
REMARK   74  A    between atoms: _170  and  _171
REMARK   75  A    between atoms: _171  and  _172
REMARK   76  A    between atoms: _172  and  _173
REMARK   77  A    between atoms: _173  and  ZN_411
REMARK   78  A    between atoms: _175  and  _177
REMARK   79  A    between atoms: _177  and  _178
REMARK   80  A    between atoms: _177  and  _180
REMARK   81  A    between atoms: _180  and  _181
REMARK   82  A    between atoms: _184  and  _186
REMARK   83  A    between atoms: _186  and  _187
REMARK   84  A    between atoms: _186  and  _189
REMARK   85  A    between atoms: _189  and  _190
REMARK   86  A    between atoms: _193  and  _195
REMARK   87  A    between atoms: _195  and  _196
REMARK   88  A    between atoms: _195  and  _198
REMARK   89  A    between atoms: _198  and  _199
REMARK   90  A    between atoms: _199  and  _200
REMARK   91  A    between atoms: _200  and  _201
REMARK   92  A    between atoms: _201  and  _202
REMARK   93  A    between atoms: _206  and  _208
REMARK   94  A    between atoms: _208  and  _209
REMARK   95  A    between atoms: _208  and  _211
REMARK   96  A    between atoms: _211  and  _212
REMARK   97  A    between atoms: _215  and  _217
REMARK   98  A    between atoms: _217  and  _218
REMARK   99  A    between atoms: _221  and  _223
REMARK  100  A    between atoms: _223  and  _224
REMARK  101  A    between atoms: _223  and  _226
REMARK  102  A    between atoms: _226  and  _227
REMARK  103  A    between atoms: _230  and  _232
REMARK  104  A    between atoms: _232  and  _233
REMARK  105  A    between atoms: _232  and  _235
REMARK  106  A    between atoms: _235  and  _236
REMARK  107  A    between atoms: _236  and  _237
REMARK  108  A    between atoms: _242  and  _244
REMARK  109  A    between atoms: _244  and  _245
REMARK  110  A    between atoms: _244  and  _247
REMARK  111  A    between atoms: _247  and  _248
REMARK  112  A    between atoms: _248  and  _249
REMARK  113  A    between atoms: _249  and  _250
REMARK  114  A    between atoms: _249  and  _251
REMARK  115  A    between atoms: _250  and  ZN_411
REMARK  116  A    between atoms: _254  and  _256
REMARK  117  A    between atoms: _256  and  _257
REMARK  118  A    between atoms: _256  and  _259
REMARK  119  A    between atoms: _259  and  _260
REMARK  120  A    between atoms: _260  and  _261
REMARK  121  A    between atoms: _263  and  _265
REMARK  122  A    between atoms: _265  and  _266
REMARK  123  A    between atoms: _265  and  _268
REMARK  124  A    between atoms: _268  and  _269
REMARK  125  A    between atoms: _269  and  _270
REMARK  126  A    between atoms: _270  and  _271
REMARK  127  A    between atoms: _280  and  _282
REMARK  128  A    between atoms: _282  and  _283
REMARK  129  A    between atoms: _282  and  _285
REMARK  130  A    between atoms: _285  and  _286
REMARK  131  A    between atoms: _289  and  _291
REMARK  132  A    between atoms: _291  and  _292
REMARK  133  A    between atoms: _291  and  _294
REMARK  134  A    between atoms: _294  and  _295
REMARK  135  A    between atoms: _301  and  _303
REMARK  136  A    between atoms: _303  and  _304
REMARK  137  A    between atoms: _303  and  _306
REMARK  138  A    between atoms: _306  and  _307
REMARK  139  A    between atoms: _307  and  _308
REMARK  140  A    between atoms: _310  and  _312
REMARK  141  A    between atoms: _312  and  _313
REMARK  142  A    between atoms: _312  and  _315
REMARK  143  A    between atoms: _315  and  _316
REMARK  144  A    between atoms: _322  and  _324
REMARK  145  A    between atoms: _324  and  _325
REMARK  146  A    between atoms: _324  and  _327
REMARK  147  A    between atoms: _327  and  _328
REMARK  148  A    between atoms: _330  and  _332
REMARK  149  A    between atoms: _332  and  _333
REMARK  150  A    between atoms: _332  and  _335
REMARK  151  A    between atoms: _335  and  _336
REMARK  152  A    between atoms: _339  and  _341
REMARK  153  A    between atoms: _341  and  _342
REMARK  154  A    between atoms: _341  and  _344
REMARK  155  A    between atoms: _344  and  _345
REMARK  156  A    between atoms: _351  and  _353
REMARK  157  A    between atoms: _353  and  _354
REMARK  158  A    between atoms: _353  and  _356
REMARK  159  A    between atoms: _356  and  _357
REMARK  160  A    between atoms: _360  and  _362
REMARK  161  A    between atoms: _362  and  _363
REMARK  162  A    between atoms: _362  and  _365
REMARK  163  A    between atoms: _365  and  _366
REMARK  164  A    between atoms: _372  and  _374
REMARK  165  A    between atoms: _374  and  _375
REMARK  166  A    between atoms: _374  and  _377
REMARK  167  A    between atoms: _377  and  _378
REMARK  168  A    between atoms: _381  and  _383
REMARK  169  A    between atoms: _383  and  _384
REMARK  170  A    between atoms: _383  and  _386
REMARK  171  A    between atoms: _386  and  _387
REMARK  172  A    between atoms: _387  and  _388
REMARK  173  A    between atoms: _388  and  _389
REMARK  174  A    between atoms: _389  and  ZN_411
REMARK  175  A    between atoms: _391  and  _393
REMARK  176  A    between atoms: _393  and  _394
REMARK  177  A    between atoms: _393  and  _396
REMARK  178  A    between atoms: _396  and  _397
REMARK  179  A    between atoms: _400  and  _402
REMARK  180  A    between atoms: _402  and  _403
REMARK  181  A    between atoms: _402  and  _405
REMARK  182  A    between atoms: _405  and  _406
REMARK                            x       y       z     vdW  Elec       q    Type
REMARK                         _______ _______ _______ _____ _____    ______ ____
ROOT
ATOM      1  CB  PHE A   1      42.936  33.699  65.408  0.00  0.00    +0.051 C 
ENDROOT
BRANCH   1   2
ATOM      2  CG  PHE A   1      41.929  32.705  64.945  0.00  0.00    -0.020 A 
ATOM      3  CD2 PHE A   1      42.130  31.351  65.159  0.00  0.00    -0.004 A 
ATOM      4  CE2 PHE A   1      41.143  30.414  64.806  0.00  0.00    -0.000 A 
ATOM      5  CZ  PHE A   1      39.952  30.843  64.233  0.00  0.00    -0.000 A 
ATOM      6  CE1 PHE A   1      39.752  32.201  64.012  0.00  0.00    -0.000 A 
ATOM      7  CD1 PHE A   1      40.737  33.123  64.366  0.00  0.00    -0.004 A 
ENDBRANCH   1   2
BRANCH   1   8
ATOM      8  CA  PHE A   1      42.588  34.323  66.757  0.00  0.00    +0.137 C 
BRANCH   8   9
ATOM      9  N   PHE A   1      41.289  35.015  66.663  0.00  0.00    -0.239 NA
ATOM     10  H   PHE A   1      41.241  35.904  66.125  0.00  0.00    +0.142 HD
ENDBRANCH   8   9
BRANCH   8  11
ATOM     11  C   PHE A   1      43.595  35.398  67.143  0.00  0.00    +0.224 C 
ATOM     12  O   PHE A   1      44.314  35.948  66.304  0.00  0.00    -0.287 OA
ENDBRANCH   8  11
ENDBRANCH   1   8
TORSDOF 4
REMARK  Name = ../refined-set-2016/2za0/2za0_pocket.pdb
REMARK  182 active torsions:
REMARK  status: ('A' for Active; 'I' for Inactive)
REMARK    1  A    between atoms: _1  and  _3
REMARK    2  A    between atoms: _3  and  _4
REMARK    3  A    between atoms: _3  and  _6
REMARK    4  A    between atoms: _6  and  _7
REMARK    5  A    between atoms: _7  and  _8
REMARK    6  A    between atoms: _8  and  _9
REMARK    7  A    between atoms: _18  and  _20
REMARK    8  A    between atoms: _20  and  _21
REMARK    9  A    between atoms: _20  and  _23
REMARK   10  A    between atoms: _23  and  _24
REMARK   11  A    between atoms: _28  and  ZN_411
REMARK   12  A    between atoms: _29  and  _31
REMARK   13  A    between atoms: _31  and  _32
REMARK   14  A    between atoms: _31  and  _34
REMARK   15  A    between atoms: _34  and  _35
REMARK   16  A    between atoms: _38  and  _40
REMARK   17  A    between atoms: _40  and  _41
REMARK   18  A    between atoms: _43  and  _45
REMARK   19  A    between atoms: _45  and  _46
REMARK   20  A    between atoms: _45  and  _48
REMARK   21  A    between atoms: _48  and  _49
REMARK   22  A    between atoms: _52  and  _54
REMARK   23  A    between atoms: _54  and  _55
REMARK   24  A    between atoms: _54  and  _57
REMARK   25  A    between atoms: _60  and  _62
REMARK   26  A    between atoms: _62  and  _63
REMARK   27  A    between atoms: _62  and  _65
REMARK   28  A    between atoms: _65  and  _66
REMARK   29  A    between atoms: _66  and  _67
REMARK   30  A    between atoms: _67  and  _68
REMARK   31  A    between atoms: _68  and  _69
REMARK   32  A    between atoms: _73  and  _75
REMARK   33  A    between atoms: _75  and  _76
REMARK   34  A    between atoms: _75  and  _78
REMARK   35  A    between atoms: _78  and  _79
REMARK   36  A    between atoms: _82  and  _84
REMARK   37  A    between atoms: _84  and  _85
REMARK   38  A    between atoms: _87  and  _89
REMARK   39  A    between atoms: _89  and  _90
REMARK   40  A    between atoms: _89  and  _92
REMARK   41  A    between atoms: _92  and  _93
REMARK   42  A    between atoms: _93  and  _94
REMARK   43  A    between atoms: _94  and  _95
REMARK   44  A    between atoms: _95  and  _96
REMARK   45  A    between atoms: _100  and  _102
REMARK   46  A    between atoms: _102  and  _103
REMARK   47  A    between atoms: _102  and  _105
REMARK   48  A    between atoms: _105  and  _106
REMARK   49  A    between atoms: _106  and  _107
REMARK   50  A    between atoms: _109  and  _111
REMARK   51  A    between atoms: _111  and  _112
REMARK   52  A    between atoms: _111  and  _114
REMARK   53  A    between atoms: _114  and  _115
REMARK   54  A    between atoms: _115  and  _116
REMARK   55  A    between atoms: _116  and  _117
REMARK   56  A    between atoms: _117  and  _118
REMARK   57  A    between atoms: _122  and  _124
REMARK   58  A    between atoms: _124  and  _125
REMARK   59  A    between atoms: _124  and  _127
REMARK   60  A    between atoms: _127  and  _128
REMARK   61  A    between atoms: _131  and  _133
REMARK   62  A    between atoms: _133  and  _134
REMARK   63  A    between atoms: _137  and  _139
REMARK   64  A    between atoms: _139  and  _140
REMARK   65  A    between atoms: _139  and  _142
REMARK   66  A    between atoms: _142  and  _143
REMARK   67  A    between atoms: _149  and  _151
REMARK   68  A    between atoms: _151  and  _152
REMARK   69  A    between atoms: _151  and  _154
REMARK   70  A    between atoms: _154  and  _155
REMARK   71  A    between atoms: _165  and  _167
REMARK   72  A    between atoms: _167  and  _168
REMARK   73  A    between atoms: _167  and  _170
REMARK   74  A    between atoms: _170  and  _171
REMARK   75  A    between atoms: _171  and  _172
REMARK   76  A    between atoms: _172  and  _173
REMARK   77  A    between atoms: _173  and  ZN_411
REMARK   78  A    between atoms: _175  and  _177
REMARK   79  A    between atoms: _177  and  _178
REMARK   80  A    between atoms: _177  and  _180
REMARK   81  A    between atoms: _180  and  _181
REMARK   82  A    between atoms: _184  and  _186
REMARK   83  A    between atoms: _186  and  _187
REMARK   84  A    between atoms: _186  and  _189
REMARK   85  A    between atoms: _189  and  _190
REMARK   86  A    between atoms: _193  and  _195
REMARK   87  A    between atoms: _195  and  _196
REMARK   88  A    between atoms: _195  and  _198
REMARK   89  A    between atoms: _198  and  _199
REMARK   90  A    between atoms: _199  and  _200
REMARK   91  A    between atoms: _200  and  _201
REMARK   92  A    between atoms: _201  and  _202
REMARK   93  A    between atoms: _206  and  _208
REMARK   94  A    between atoms: _208  and  _209
REMARK   95  A    between atoms: _208  and  _211
REMARK   96  A    between atoms: _211  and  _212
REMARK   97  A    between atoms: _215  and  _217
REMARK   98  A    between atoms: _217  and  _218
REMARK   99  A    between atoms: _221  and  _223
REMARK  100  A    between atoms: _223  and  _224
REMARK  101  A    between atoms: _223  and  _226
REMARK  102  A    between atoms: _226  and  _227
REMARK  103  A    between atoms: _230  and  _232
REMARK  104  A    between atoms: _232  and  _233
REMARK  105  A    between atoms: _232  and  _235
REMARK  106  A    between atoms: _235  and  _236
REMARK  107  A    between atoms: _236  and  _237
REMARK  108  A    between atoms: _242  and  _244
REMARK  109  A    between atoms: _244  and  _245
REMARK  110  A    between atoms: _244  and  _247
REMARK  111  A    between atoms: _247  and  _248
REMARK  112  A    between atoms: _248  and  _249
REMARK  113  A    between atoms: _249  and  _250
REMARK  114  A    between atoms: _249  and  _251
REMARK  115  A    between atoms: _250  and  ZN_411
REMARK  116  A    between atoms: _254  and  _256
REMARK  117  A    between atoms: _256  and  _257
REMARK  118  A    between atoms: _256  and  _259
REMARK  119  A    between atoms: _259  and  _260
REMARK  120  A    between atoms: _260  and  _261
REMARK  121  A    between atoms: _263  and  _265
REMARK  122  A    between atoms: _265  and  _266
REMARK  123  A    between atoms: _265  and  _268
REMARK  124  A    between atoms: _268  and  _269
REMARK  125  A    between atoms: _269  and  _270
REMARK  126  A    between atoms: _270  and  _271
REMARK  127  A    between atoms: _280  and  _282
REMARK  128  A    between atoms: _282  and  _283
REMARK  129  A    between atoms: _282  and  _285
REMARK  130  A    between atoms: _285  and  _286
REMARK  131  A    between atoms: _289  and  _291
REMARK  132  A    between atoms: _291  and  _292
REMARK  133  A    between atoms: _291  and  _294
REMARK  134  A    between atoms: _294  and  _295
REMARK  135  A    between atoms: _301  and  _303
REMARK  136  A    between atoms: _303  and  _304
REMARK  137  A    between atoms: _303  and  _306
REMARK  138  A    between atoms: _306  and  _307
REMARK  139  A    between atoms: _307  and  _308
REMARK  140  A    between atoms: _310  and  _312
REMARK  141  A    between atoms: _312  and  _313
REMARK  142  A    between atoms: _312  and  _315
REMARK  143  A    between atoms: _315  and  _316
REMARK  144  A    between atoms: _322  and  _324
REMARK  145  A    between atoms: _324  and  _325
REMARK  146  A    between atoms: _324  and  _327
REMARK  147  A    between atoms: _327  and  _328
REMARK  148  A    between atoms: _330  and  _332
REMARK  149  A    between atoms: _332  and  _333
REMARK  150  A    between atoms: _332  and  _335
REMARK  151  A    between atoms: _335  and  _336
REMARK  152  A    between atoms: _339  and  _341
REMARK  153  A    between atoms: _341  and  _342
REMARK  154  A    between atoms: _341  and  _344
REMARK  155  A    between atoms: _344  and  _345
REMARK  156  A    between atoms: _351  and  _353
REMARK  157  A    between atoms: _353  and  _354
REMARK  158  A    between atoms: _353  and  _356
REMARK  159  A    between atoms: _356  and  _357
REMARK  160  A    between atoms: _360  and  _362
REMARK  161  A    between atoms: _362  and  _363
REMARK  162  A    between atoms: _362  and  _365
REMARK  163  A    between atoms: _365  and  _366
REMARK  164  A    between atoms: _372  and  _374
REMARK  165  A    between atoms: _374  and  _375
REMARK  166  A    between atoms: _374  and  _377
REMARK  167  A    between atoms: _377  and  _378
REMARK  168  A    between atoms: _381  and  _383
REMARK  169  A    between atoms: _383  and  _384
REMARK  170  A    between atoms: _383  and  _386
REMARK  171  A    between atoms: _386  and  _387
REMARK  172  A    between atoms: _387  and  _388
REMARK  173  A    between atoms: _388  and  _389
REMARK  174  A    between atoms: _389  and  ZN_411
REMARK  175  A    between atoms: _391  and  _393
REMARK  176  A    between atoms: _393  and  _394
REMARK  177  A    between atoms: _393  and  _396
REMARK  178  A    between atoms: _396  and  _397
REMARK  179  A    between atoms: _400  and  _402
REMARK  180  A    between atoms: _402  and  _403
REMARK  181  A    between atoms: _402  and  _405
REMARK  182  A    between atoms: _405  and  _406
REMARK                            x       y       z     vdW  Elec       q    Type
REMARK                         _______ _______ _______ _____ _____    ______ ____
ROOT
ATOM      1  CA  MET A   1      47.517  35.737  64.612  0.00  0.00    +0.134 C 
ENDROOT
BRANCH   1   2
ATOM      2  N   MET A   1      47.246  35.366  65.988  0.00  0.00    -0.239 NA
ATOM      3  H   MET A   1      46.285  35.102  66.284  0.00  0.00    +0.142 HD
ENDBRANCH   1   2
BRANCH   1   4
ATOM      4  C   MET A   1      46.893  37.073  64.252  0.00  0.00    +0.224 C 
ATOM      5  O   MET A   1      46.953  37.514  63.110  0.00  0.00    -0.287 OA
ENDBRANCH   1   4
BRANCH   1   6
ATOM      6  CB  MET A   1      47.063  34.615  63.676  0.00  0.00    +0.037 C 
BRANCH   6   7
ATOM      7  CG  MET A   1      47.958  33.372  63.777  0.00  0.00    +0.059 C 
BRANCH   7   8
ATOM      8  SD  MET A   1      47.225  31.900  63.041  0.00  0.00    -0.139 S 
ATOM      9  CE  MET A   1      47.835  32.043  61.398  0.00  0.00    +0.069 C 
ENDBRANCH   7   8
ENDBRANCH   6   7
ENDBRANCH   1   6
TORSDOF 5
REMARK  Name = ../refined-set-2016/2za0/2za0_pocket.pdb
REMARK  182 active torsions:
REMARK  status: ('A' for Active; 'I' for Inactive)
REMARK    1  A    between atoms: _1  and  _3
REMARK    2  A    between atoms: _3  and  _4
REMARK    3  A    between atoms: _3  and  _6
REMARK    4  A    between atoms: _6  and  _7
REMARK    5  A    between atoms: _7  and  _8
REMARK    6  A    between atoms: _8  and  _9
REMARK    7  A    between atoms: _18  and  _20
REMARK    8  A    between atoms: _20  and  _21
REMARK    9  A    between atoms: _20  and  _23
REMARK   10  A    between atoms: _23  and  _24
REMARK   11  A    between atoms: _28  and  ZN_411
REMARK   12  A    between atoms: _29  and  _31
REMARK   13  A    between atoms: _31  and  _32
REMARK   14  A    between atoms: _31  and  _34
REMARK   15  A    between atoms: _34  and  _35
REMARK   16  A    between atoms: _38  and  _40
REMARK   17  A    between atoms: _40  and  _41
REMARK   18  A    between atoms: _43  and  _45
REMARK   19  A    between atoms: _45  and  _46
REMARK   20  A    between atoms: _45  and  _48
REMARK   21  A    between atoms: _48  and  _49
REMARK   22  A    between atoms: _52  and  _54
REMARK   23  A    between atoms: _54  and  _55
REMARK   24  A    between atoms: _54  and  _57
REMARK   25  A    between atoms: _60  and  _62
REMARK   26  A    between atoms: _62  and  _63
REMARK   27  A    between atoms: _62  and  _65
REMARK   28  A    between atoms: _65  and  _66
REMARK   29  A    between atoms: _66  and  _67
REMARK   30  A    between atoms: _67  and  _68
REMARK   31  A    between atoms: _68  and  _69
REMARK   32  A    between atoms: _73  and  _75
REMARK   33  A    between atoms: _75  and  _76
REMARK   34  A    between atoms: _75  and  _78
REMARK   35  A    between atoms: _78  and  _79
REMARK   36  A    between atoms: _82  and  _84
REMARK   37  A    between atoms: _84  and  _85
REMARK   38  A    between atoms: _87  and  _89
REMARK   39  A    between atoms: _89  and  _90
REMARK   40  A    between atoms: _89  and  _92
REMARK   41  A    between atoms: _92  and  _93
REMARK   42  A    between atoms: _93  and  _94
REMARK   43  A    between atoms: _94  and  _95
REMARK   44  A    between atoms: _95  and  _96
REMARK   45  A    between atoms: _100  and  _102
REMARK   46  A    between atoms: _102  and  _103
REMARK   47  A    between atoms: _102  and  _105
REMARK   48  A    between atoms: _105  and  _106
REMARK   49  A    between atoms: _106  and  _107
REMARK   50  A    between atoms: _109  and  _111
REMARK   51  A    between atoms: _111  and  _112
REMARK   52  A    between atoms: _111  and  _114
REMARK   53  A    between atoms: _114  and  _115
REMARK   54  A    between atoms: _115  and  _116
REMARK   55  A    between atoms: _116  and  _117
REMARK   56  A    between atoms: _117  and  _118
REMARK   57  A    between atoms: _122  and  _124
REMARK   58  A    between atoms: _124  and  _125
REMARK   59  A    between atoms: _124  and  _127
REMARK   60  A    between atoms: _127  and  _128
REMARK   61  A    between atoms: _131  and  _133
REMARK   62  A    between atoms: _133  and  _134
REMARK   63  A    between atoms: _137  and  _139
REMARK   64  A    between atoms: _139  and  _140
REMARK   65  A    between atoms: _139  and  _142
REMARK   66  A    between atoms: _142  and  _143
REMARK   67  A    between atoms: _149  and  _151
REMARK   68  A    between atoms: _151  and  _152
REMARK   69  A    between atoms: _151  and  _154
REMARK   70  A    between atoms: _154  and  _155
REMARK   71  A    between atoms: _165  and  _167
REMARK   72  A    between atoms: _167  and  _168
REMARK   73  A    between atoms: _167  and  _170
REMARK   74  A    between atoms: _170  and  _171
REMARK   75  A    between atoms: _171  and  _172
REMARK   76  A    between atoms: _172  and  _173
REMARK   77  A    between atoms: _173  and  ZN_411
REMARK   78  A    between atoms: _175  and  _177
REMARK   79  A    between atoms: _177  and  _178
REMARK   80  A    between atoms: _177  and  _180
REMARK   81  A    between atoms: _180  and  _181
REMARK   82  A    between atoms: _184  and  _186
REMARK   83  A    between atoms: _186  and  _187
REMARK   84  A    between atoms: _186  and  _189
REMARK   85  A    between atoms: _189  and  _190
REMARK   86  A    between atoms: _193  and  _195
REMARK   87  A    between atoms: _195  and  _196
REMARK   88  A    between atoms: _195  and  _198
REMARK   89  A    between atoms: _198  and  _199
REMARK   90  A    between atoms: _199  and  _200
REMARK   91  A    between atoms: _200  and  _201
REMARK   92  A    between atoms: _201  and  _202
REMARK   93  A    between atoms: _206  and  _208
REMARK   94  A    between atoms: _208  and  _209
REMARK   95  A    between atoms: _208  and  _211
REMARK   96  A    between atoms: _211  and  _212
REMARK   97  A    between atoms: _215  and  _217
REMARK   98  A    between atoms: _217  and  _218
REMARK   99  A    between atoms: _221  and  _223
REMARK  100  A    between atoms: _223  and  _224
REMARK  101  A    between atoms: _223  and  _226
REMARK  102  A    between atoms: _226  and  _227
REMARK  103  A    between atoms: _230  and  _232
REMARK  104  A    between atoms: _232  and  _233
REMARK  105  A    between atoms: _232  and  _235
REMARK  106  A    between atoms: _235  and  _236
REMARK  107  A    between atoms: _236  and  _237
REMARK  108  A    between atoms: _242  and  _244
REMARK  109  A    between atoms: _244  and  _245
REMARK  110  A    between atoms: _244  and  _247
REMARK  111  A    between atoms: _247  and  _248
REMARK  112  A    between atoms: _248  and  _249
REMARK  113  A    between atoms: _249  and  _250
REMARK  114  A    between atoms: _249  and  _251
REMARK  115  A    between atoms: _250  and  ZN_411
REMARK  116  A    between atoms: _254  and  _256
REMARK  117  A    between atoms: _256  and  _257
REMARK  118  A    between atoms: _256  and  _259
REMARK  119  A    between atoms: _259  and  _260
REMARK  120  A    between atoms: _260  and  _261
REMARK  121  A    between atoms: _263  and  _265
REMARK  122  A    between atoms: _265  and  _266
REMARK  123  A    between atoms: _265  and  _268
REMARK  124  A    between atoms: _268  and  _269
REMARK  125  A    between atoms: _269  and  _270
REMARK  126  A    between atoms: _270  and  _271
REMARK  127  A    between atoms: _280  and  _282
REMARK  128  A    between atoms: _282  and  _283
REMARK  129  A    between atoms: _282  and  _285
REMARK  130  A    between atoms: _285  and  _286
REMARK  131  A    between atoms: _289  and  _291
REMARK  132  A    between atoms: _291  and  _292
REMARK  133  A    between atoms: _291  and  _294
REMARK  134  A    between atoms: _294  and  _295
REMARK  135  A    between atoms: _301  and  _303
REMARK  136  A    between atoms: _303  and  _304
REMARK  137  A    between atoms: _303  and  _306
REMARK  138  A    between atoms: _306  and  _307
REMARK  139  A    between atoms: _307  and  _308
REMARK  140  A    between atoms: _310  and  _312
REMARK  141  A    between atoms: _312  and  _313
REMARK  142  A    between atoms: _312  and  _315
REMARK  143  A    between atoms: _315  and  _316
REMARK  144  A    between atoms: _322  and  _324
REMARK  145  A    between atoms: _324  and  _325
REMARK  146  A    between atoms: _324  and  _327
REMARK  147  A    between atoms: _327  and  _328
REMARK  148  A    between atoms: _330  and  _332
REMARK  149  A    between atoms: _332  and  _333
REMARK  150  A    between atoms: _332  and  _335
REMARK  151  A    between atoms: _335  and  _336
REMARK  152  A    between atoms: _339  and  _341
REMARK  153  A    between atoms: _341  and  _342
REMARK  154  A    between atoms: _341  and  _344
REMARK  155  A    between atoms: _344  and  _345
REMARK  156  A    between atoms: _351  and  _353
REMARK  157  A    between atoms: _353  and  _354
REMARK  158  A    between atoms: _353  and  _356
REMARK  159  A    between atoms: _356  and  _357
REMARK  160  A    between atoms: _360  and  _362
REMARK  161  A    between atoms: _362  and  _363
REMARK  162  A    between atoms: _362  and  _365
REMARK  163  A    between atoms: _365  and  _366
REMARK  164  A    between atoms: _372  and  _374
REMARK  165  A    between atoms: _374  and  _375
REMARK  166  A    between atoms: _374  and  _377
REMARK  167  A    between atoms: _377  and  _378
REMARK  168  A    between atoms: _381  and  _383
REMARK  169  A    between atoms: _383  and  _384
REMARK  170  A    between atoms: _383  and  _386
REMARK  171  A    between atoms: _386  and  _387
REMARK  172  A    between atoms: _387  and  _388
REMARK  173  A    between atoms: _388  and  _389
REMARK  174  A    between atoms: _389  and  ZN_411
REMARK  175  A    between atoms: _391  and  _393
REMARK  176  A    between atoms: _393  and  _394
REMARK  177  A    between atoms: _393  and  _396
REMARK  178  A    between atoms: _396  and  _397
REMARK  179  A    between atoms: _400  and  _402
REMARK  180  A    between atoms: _402  and  _403
REMARK  181  A    between atoms: _402  and  _405
REMARK  182  A    between atoms: _405  and  _406
REMARK                            x       y       z     vdW  Elec       q    Type
REMARK                         _______ _______ _______ _____ _____    ______ ____
ROOT
ATOM      1  CA  SER A   2      38.949  37.729  63.294  0.00  0.00    +0.178 C 
ENDROOT
BRANCH   1   4
ATOM      2  C   PHE A   1      41.370  37.816  63.500  0.00  0.00    +0.239 C 
ATOM      3  O   PHE A   1      41.360  37.021  64.449  0.00  0.00    -0.274 OA
ATOM      4  N   SER A   2      40.264  38.241  62.900  0.00  0.00    -0.295 N 
ATOM      5  H   SER A   2      40.332  38.947  62.140  0.00  0.00    +0.150 HD
BRANCH   2   6
ATOM      6  CA  PHE A   1      42.656  38.391  62.962  0.00  0.00    +0.149 C 
BRANCH   6   7
ATOM      7  N   PHE A   1      43.702  38.287  63.953  0.00  0.00    -0.238 NA
ATOM      8  H   PHE A   1      43.668  37.547  64.683  0.00  0.00    +0.142 HD
ENDBRANCH   6   7
BRANCH   6   9
ATOM      9  CB  PHE A   1      43.044  37.707  61.636  0.00  0.00    +0.053 C 
BRANCH   9  10
ATOM     10  CG  PHE A   1      43.016  36.204  61.665  0.00  0.00    -0.020 A 
ATOM     11  CD2 PHE A   1      44.192  35.482  61.906  0.00  0.00    -0.004 A 
ATOM     12  CE2 PHE A   1      44.212  34.102  61.803  0.00  0.00    -0.000 A 
ATOM     13  CZ  PHE A   1      43.063  33.409  61.467  0.00  0.00    -0.000 A 
ATOM     14  CE1 PHE A   1      41.875  34.111  61.233  0.00  0.00    -0.000 A 
ATOM     15  CD1 PHE A   1      41.865  35.506  61.338  0.00  0.00    -0.004 A 
ENDBRANCH   9  10
ENDBRANCH   6   9
ENDBRANCH   2   6
ENDBRANCH   1   4
BRANCH   1  16
ATOM     16  C   SER A   2      38.231  37.177  62.059  0.00  0.00    +0.243 C 
ATOM     17  N   LEU A   3      37.340  36.214  62.262  0.00  0.00    -0.298 N 
ATOM     18  H   LEU A   3      37.192  35.849  63.224  0.00  0.00    +0.150 HD
ATOM     19  O   SER A   2      38.481  37.634  60.946  0.00  0.00    -0.273 OA
BRANCH  17  20
ATOM     20  CA  LEU A   3      36.558  35.655  61.147  0.00  0.00    +0.137 C 
BRANCH  20  21
ATOM     21  C   LEU A   3      35.087  35.939  61.421  0.00  0.00    +0.227 C 
ATOM     22  O   LEU A   3      34.645  35.787  62.558  0.00  0.00    -0.286 OA
ENDBRANCH  20  21
BRANCH  20  23
ATOM     23  CB  LEU A   3      36.745  34.152  61.062  0.00  0.00    +0.028 C 
BRANCH  23  24
ATOM     24  CG  LEU A   3      38.177  33.761  60.708  0.00  0.00    +0.002 C 
ATOM     25  CD2 LEU A   3      38.204  32.238  60.624  0.00  0.00    +0.000 C 
ATOM     26  CD1 LEU A   3      38.614  34.399  59.372  0.00  0.00    +0.000 C 
ENDBRANCH  23  24
ENDBRANCH  20  23
ENDBRANCH  17  20
ENDBRANCH   1  16
BRANCH   1  27
ATOM     27  CB  SER A   2      38.066  38.842  63.885  0.00  0.00    +0.166 C 
BRANCH  27  28
ATOM     28  OG  SER A   2      38.665  39.412  65.046  0.00  0.00    -0.380 OA
ATOM     29  H   SER A   2      38.789  38.708  65.731  0.00  0.00    +0.211 HD
ENDBRANCH  27  28
ENDBRANCH   1  27
TORSDOF 12
REMARK  Name = ../refined-set-2016/2za0/2za0_pocket.pdb
REMARK  182 active torsions:
REMARK  status: ('A' for Active; 'I' for Inactive)
REMARK    1  A    between atoms: _1  and  _3
REMARK    2  A    between atoms: _3  and  _4
REMARK    3  A    between atoms: _3  and  _6
REMARK    4  A    between atoms: _6  and  _7
REMARK    5  A    between atoms: _7  and  _8
REMARK    6  A    between atoms: _8  and  _9
REMARK    7  A    between atoms: _18  and  _20
REMARK    8  A    between atoms: _20  and  _21
REMARK    9  A    between atoms: _20  and  _23
REMARK   10  A    between atoms: _23  and  _24
REMARK   11  A    between atoms: _28  and  ZN_411
REMARK   12  A    between atoms: _29  and  _31
REMARK   13  A    between atoms: _31  and  _32
REMARK   14  A    between atoms: _31  and  _34
REMARK   15  A    between atoms: _34  and  _35
REMARK   16  A    between atoms: _38  and  _40
REMARK   17  A    between atoms: _40  and  _41
REMARK   18  A    between atoms: _43  and  _45
REMARK   19  A    between atoms: _45  and  _46
REMARK   20  A    between atoms: _45  and  _48
REMARK   21  A    between atoms: _48  and  _49
REMARK   22  A    between atoms: _52  and  _54
REMARK   23  A    between atoms: _54  and  _55
REMARK   24  A    between atoms: _54  and  _57
REMARK   25  A    between atoms: _60  and  _62
REMARK   26  A    between atoms: _62  and  _63
REMARK   27  A    between atoms: _62  and  _65
REMARK   28  A    between atoms: _65  and  _66
REMARK   29  A    between atoms: _66  and  _67
REMARK   30  A    between atoms: _67  and  _68
REMARK   31  A    between atoms: _68  and  _69
REMARK   32  A    between atoms: _73  and  _75
REMARK   33  A    between atoms: _75  and  _76
REMARK   34  A    between atoms: _75  and  _78
REMARK   35  A    between atoms: _78  and  _79
REMARK   36  A    between atoms: _82  and  _84
REMARK   37  A    between atoms: _84  and  _85
REMARK   38  A    between atoms: _87  and  _89
REMARK   39  A    between atoms: _89  and  _90
REMARK   40  A    between atoms: _89  and  _92
REMARK   41  A    between atoms: _92  and  _93
REMARK   42  A    between atoms: _93  and  _94
REMARK   43  A    between atoms: _94  and  _95
REMARK   44  A    between atoms: _95  and  _96
REMARK   45  A    between atoms: _100  and  _102
REMARK   46  A    between atoms: _102  and  _103
REMARK   47  A    between atoms: _102  and  _105
REMARK   48  A    between atoms: _105  and  _106
REMARK   49  A    between atoms: _106  and  _107
REMARK   50  A    between atoms: _109  and  _111
REMARK   51  A    between atoms: _111  and  _112
REMARK   52  A    between atoms: _111  and  _114
REMARK   53  A    between atoms: _114  and  _115
REMARK   54  A    between atoms: _115  and  _116
REMARK   55  A    between atoms: _116  and  _117
REMARK   56  A    between atoms: _117  and  _118
REMARK   57  A    between atoms: _122  and  _124
REMARK   58  A    between atoms: _124  and  _125
REMARK   59  A    between atoms: _124  and  _127
REMARK   60  A    between atoms: _127  and  _128
REMARK   61  A    between atoms: _131  and  _133
REMARK   62  A    between atoms: _133  and  _134
REMARK   63  A    between atoms: _137  and  _139
REMARK   64  A    between atoms: _139  and  _140
REMARK   65  A    between atoms: _139  and  _142
REMARK   66  A    between atoms: _142  and  _143
REMARK   67  A    between atoms: _149  and  _151
REMARK   68  A    between atoms: _151  and  _152
REMARK   69  A    between atoms: _151  and  _154
REMARK   70  A    between atoms: _154  and  _155
REMARK   71  A    between atoms: _165  and  _167
REMARK   72  A    between atoms: _167  and  _168
REMARK   73  A    between atoms: _167  and  _170
REMARK   74  A    between atoms: _170  and  _171
REMARK   75  A    between atoms: _171  and  _172
REMARK   76  A    between atoms: _172  and  _173
REMARK   77  A    between atoms: _173  and  ZN_411
REMARK   78  A    between atoms: _175  and  _177
REMARK   79  A    between atoms: _177  and  _178
REMARK   80  A    between atoms: _177  and  _180
REMARK   81  A    between atoms: _180  and  _181
REMARK   82  A    between atoms: _184  and  _186
REMARK   83  A    between atoms: _186  and  _187
REMARK   84  A    between atoms: _186  and  _189
REMARK   85  A    between atoms: _189  and  _190
REMARK   86  A    between atoms: _193  and  _195
REMARK   87  A    between atoms: _195  and  _196
REMARK   88  A    between atoms: _195  and  _198
REMARK   89  A    between atoms: _198  and  _199
REMARK   90  A    between atoms: _199  and  _200
REMARK   91  A    between atoms: _200  and  _201
REMARK   92  A    between atoms: _201  and  _202
REMARK   93  A    between atoms: _206  and  _208
REMARK   94  A    between atoms: _208  and  _209
REMARK   95  A    between atoms: _208  and  _211
REMARK   96  A    between atoms: _211  and  _212
REMARK   97  A    between atoms: _215  and  _217
REMARK   98  A    between atoms: _217  and  _218
REMARK   99  A    between atoms: _221  and  _223
REMARK  100  A    between atoms: _223  and  _224
REMARK  101  A    between atoms: _223  and  _226
REMARK  102  A    between atoms: _226  and  _227
REMARK  103  A    between atoms: _230  and  _232
REMARK  104  A    between atoms: _232  and  _233
REMARK  105  A    between atoms: _232  and  _235
REMARK  106  A    between atoms: _235  and  _236
REMARK  107  A    between atoms: _236  and  _237
REMARK  108  A    between atoms: _242  and  _244
REMARK  109  A    between atoms: _244  and  _245
REMARK  110  A    between atoms: _244  and  _247
REMARK  111  A    between atoms: _247  and  _248
REMARK  112  A    between atoms: _248  and  _249
REMARK  113  A    between atoms: _249  and  _250
REMARK  114  A    between atoms: _249  and  _251
REMARK  115  A    between atoms: _250  and  ZN_411
REMARK  116  A    between atoms: _254  and  _256
REMARK  117  A    between atoms: _256  and  _257
REMARK  118  A    between atoms: _256  and  _259
REMARK  119  A    between atoms: _259  and  _260
REMARK  120  A    between atoms: _260  and  _261
REMARK  121  A    between atoms: _263  and  _265
REMARK  122  A    between atoms: _265  and  _266
REMARK  123  A    between atoms: _265  and  _268
REMARK  124  A    between atoms: _268  and  _269
REMARK  125  A    between atoms: _269  and  _270
REMARK  126  A    between atoms: _270  and  _271
REMARK  127  A    between atoms: _280  and  _282
REMARK  128  A    between atoms: _282  and  _283
REMARK  129  A    between atoms: _282  and  _285
REMARK  130  A    between atoms: _285  and  _286
REMARK  131  A    between atoms: _289  and  _291
REMARK  132  A    between atoms: _291  and  _292
REMARK  133  A    between atoms: _291  and  _294
REMARK  134  A    between atoms: _294  and  _295
REMARK  135  A    between atoms: _301  and  _303
REMARK  136  A    between atoms: _303  and  _304
REMARK  137  A    between atoms: _303  and  _306
REMARK  138  A    between atoms: _306  and  _307
REMARK  139  A    between atoms: _307  and  _308
REMARK  140  A    between atoms: _310  and  _312
REMARK  141  A    between atoms: _312  and  _313
REMARK  142  A    between atoms: _312  and  _315
REMARK  143  A    between atoms: _315  and  _316
REMARK  144  A    between atoms: _322  and  _324
REMARK  145  A    between atoms: _324  and  _325
REMARK  146  A    between atoms: _324  and  _327
REMARK  147  A    between atoms: _327  and  _328
REMARK  148  A    between atoms: _330  and  _332
REMARK  149  A    between atoms: _332  and  _333
REMARK  150  A    between atoms: _332  and  _335
REMARK  151  A    between atoms: _335  and  _336
REMARK  152  A    between atoms: _339  and  _341
REMARK  153  A    between atoms: _341  and  _342
REMARK  154  A    between atoms: _341  and  _344
REMARK  155  A    between atoms: _344  and  _345
REMARK  156  A    between atoms: _351  and  _353
REMARK  157  A    between atoms: _353  and  _354
REMARK  158  A    between atoms: _353  and  _356
REMARK  159  A    between atoms: _356  and  _357
REMARK  160  A    between atoms: _360  and  _362
REMARK  161  A    between atoms: _362  and  _363
REMARK  162  A    between atoms: _362  and  _365
REMARK  163  A    between atoms: _365  and  _366
REMARK  164  A    between atoms: _372  and  _374
REMARK  165  A    between atoms: _374  and  _375
REMARK  166  A    between atoms: _374  and  _377
REMARK  167  A    between atoms: _377  and  _378
REMARK  168  A    between atoms: _381  and  _383
REMARK  169  A    between atoms: _383  and  _384
REMARK  170  A    between atoms: _383  and  _386
REMARK  171  A    between atoms: _386  and  _387
REMARK  172  A    between atoms: _387  and  _388
REMARK  173  A    between atoms: _388  and  _389
REMARK  174  A    between atoms: _389  and  ZN_411
REMARK  175  A    between atoms: _391  and  _393
REMARK  176  A    between atoms: _393  and  _394
REMARK  177  A    between atoms: _393  and  _396
REMARK  178  A    between atoms: _396  and  _397
REMARK  179  A    between atoms: _400  and  _402
REMARK  180  A    between atoms: _402  and  _403
REMARK  181  A    between atoms: _402  and  _405
REMARK  182  A    between atoms: _405  and  _406
REMARK                            x       y       z     vdW  Elec       q    Type
REMARK                         _______ _______ _______ _____ _____    ______ ____
ROOT
ATOM      1  CB  PHE A   1      30.499  32.660  59.716  0.00  0.00    +0.051 C 
ENDROOT
BRANCH   1   2
ATOM      2  CG  PHE A   1      31.818  31.985  59.532  0.00  0.00    -0.020 A 
ATOM      3  CD2 PHE A   1      32.801  32.092  60.501  0.00  0.00    -0.004 A 
ATOM      4  CE2 PHE A   1      34.091  31.566  60.270  0.00  0.00    -0.000 A 
ATOM      5  CZ  PHE A   1      34.387  30.934  59.068  0.00  0.00    -0.000 A 
ATOM      6  CE1 PHE A   1      33.410  30.807  58.090  0.00  0.00    -0.000 A 
ATOM      7  CD1 PHE A   1      32.122  31.335  58.323  0.00  0.00    -0.004 A 
ENDBRANCH   1   2
BRANCH   1   8
ATOM      8  CA  PHE A   1      30.486  34.095  59.196  0.00  0.00    +0.137 C 
BRANCH   8   9
ATOM      9  N   PHE A   1      31.239  34.965  60.097  0.00  0.00    -0.239 NA
ATOM     10  H   PHE A   1      31.061  34.936  61.121  0.00  0.00    +0.142 HD
ENDBRANCH   8   9
BRANCH   8  11
ATOM     11  C   PHE A   1      29.074  34.587  59.074  0.00  0.00    +0.224 C 
ATOM     12  O   PHE A   1      28.344  34.615  60.062  0.00  0.00    -0.287 OA
ENDBRANCH   8  11
ENDBRANCH   1   8
TORSDOF 4
REMARK  Name = ../refined-set-2016/2za0/2za0_pocket.pdb
REMARK  182 active torsions:
REMARK  status: ('A' for Active; 'I' for Inactive)
REMARK    1  A    between atoms: _1  and  _3
REMARK    2  A    between atoms: _3  and  _4
REMARK    3  A    between atoms: _3  and  _6
REMARK    4  A    between atoms: _6  and  _7
REMARK    5  A    between atoms: _7  and  _8
REMARK    6  A    between atoms: _8  and  _9
REMARK    7  A    between atoms: _18  and  _20
REMARK    8  A    between atoms: _20  and  _21
REMARK    9  A    between atoms: _20  and  _23
REMARK   10  A    between atoms: _23  and  _24
REMARK   11  A    between atoms: _28  and  ZN_411
REMARK   12  A    between atoms: _29  and  _31
REMARK   13  A    between atoms: _31  and  _32
REMARK   14  A    between atoms: _31  and  _34
REMARK   15  A    between atoms: _34  and  _35
REMARK   16  A    between atoms: _38  and  _40
REMARK   17  A    between atoms: _40  and  _41
REMARK   18  A    between atoms: _43  and  _45
REMARK   19  A    between atoms: _45  and  _46
REMARK   20  A    between atoms: _45  and  _48
REMARK   21  A    between atoms: _48  and  _49
REMARK   22  A    between atoms: _52  and  _54
REMARK   23  A    between atoms: _54  and  _55
REMARK   24  A    between atoms: _54  and  _57
REMARK   25  A    between atoms: _60  and  _62
REMARK   26  A    between atoms: _62  and  _63
REMARK   27  A    between atoms: _62  and  _65
REMARK   28  A    between atoms: _65  and  _66
REMARK   29  A    between atoms: _66  and  _67
REMARK   30  A    between atoms: _67  and  _68
REMARK   31  A    between atoms: _68  and  _69
REMARK   32  A    between atoms: _73  and  _75
REMARK   33  A    between atoms: _75  and  _76
REMARK   34  A    between atoms: _75  and  _78
REMARK   35  A    between atoms: _78  and  _79
REMARK   36  A    between atoms: _82  and  _84
REMARK   37  A    between atoms: _84  and  _85
REMARK   38  A    between atoms: _87  and  _89
REMARK   39  A    between atoms: _89  and  _90
REMARK   40  A    between atoms: _89  and  _92
REMARK   41  A    between atoms: _92  and  _93
REMARK   42  A    between atoms: _93  and  _94
REMARK   43  A    between atoms: _94  and  _95
REMARK   44  A    between atoms: _95  and  _96
REMARK   45  A    between atoms: _100  and  _102
REMARK   46  A    between atoms: _102  and  _103
REMARK   47  A    between atoms: _102  and  _105
REMARK   48  A    between atoms: _105  and  _106
REMARK   49  A    between atoms: _106  and  _107
REMARK   50  A    between atoms: _109  and  _111
REMARK   51  A    between atoms: _111  and  _112
REMARK   52  A    between atoms: _111  and  _114
REMARK   53  A    between atoms: _114  and  _115
REMARK   54  A    between atoms: _115  and  _116
REMARK   55  A    between atoms: _116  and  _117
REMARK   56  A    between atoms: _117  and  _118
REMARK   57  A    between atoms: _122  and  _124
REMARK   58  A    between atoms: _124  and  _125
REMARK   59  A    between atoms: _124  and  _127
REMARK   60  A    between atoms: _127  and  _128
REMARK   61  A    between atoms: _131  and  _133
REMARK   62  A    between atoms: _133  and  _134
REMARK   63  A    between atoms: _137  and  _139
REMARK   64  A    between atoms: _139  and  _140
REMARK   65  A    between atoms: _139  and  _142
REMARK   66  A    between atoms: _142  and  _143
REMARK   67  A    between atoms: _149  and  _151
REMARK   68  A    between atoms: _151  and  _152
REMARK   69  A    between atoms: _151  and  _154
REMARK   70  A    between atoms: _154  and  _155
REMARK   71  A    between atoms: _165  and  _167
REMARK   72  A    between atoms: _167  and  _168
REMARK   73  A    between atoms: _167  and  _170
REMARK   74  A    between atoms: _170  and  _171
REMARK   75  A    between atoms: _171  and  _172
REMARK   76  A    between atoms: _172  and  _173
REMARK   77  A    between atoms: _173  and  ZN_411
REMARK   78  A    between atoms: _175  and  _177
REMARK   79  A    between atoms: _177  and  _178
REMARK   80  A    between atoms: _177  and  _180
REMARK   81  A    between atoms: _180  and  _181
REMARK   82  A    between atoms: _184  and  _186
REMARK   83  A    between atoms: _186  and  _187
REMARK   84  A    between atoms: _186  and  _189
REMARK   85  A    between atoms: _189  and  _190
REMARK   86  A    between atoms: _193  and  _195
REMARK   87  A    between atoms: _195  and  _196
REMARK   88  A    between atoms: _195  and  _198
REMARK   89  A    between atoms: _198  and  _199
REMARK   90  A    between atoms: _199  and  _200
REMARK   91  A    between atoms: _200  and  _201
REMARK   92  A    between atoms: _201  and  _202
REMARK   93  A    between atoms: _206  and  _208
REMARK   94  A    between atoms: _208  and  _209
REMARK   95  A    between atoms: _208  and  _211
REMARK   96  A    between atoms: _211  and  _212
REMARK   97  A    between atoms: _215  and  _217
REMARK   98  A    between atoms: _217  and  _218
REMARK   99  A    between atoms: _221  and  _223
REMARK  100  A    between atoms: _223  and  _224
REMARK  101  A    between atoms: _223  and  _226
REMARK  102  A    between atoms: _226  and  _227
REMARK  103  A    between atoms: _230  and  _232
REMARK  104  A    between atoms: _232  and  _233
REMARK  105  A    between atoms: _232  and  _235
REMARK  106  A    between atoms: _235  and  _236
REMARK  107  A    between atoms: _236  and  _237
REMARK  108  A    between atoms: _242  and  _244
REMARK  109  A    between atoms: _244  and  _245
REMARK  110  A    between atoms: _244  and  _247
REMARK  111  A    between atoms: _247  and  _248
REMARK  112  A    between atoms: _248  and  _249
REMARK  113  A    between atoms: _249  and  _250
REMARK  114  A    between atoms: _249  and  _251
REMARK  115  A    between atoms: _250  and  ZN_411
REMARK  116  A    between atoms: _254  and  _256
REMARK  117  A    between atoms: _256  and  _257
REMARK  118  A    between atoms: _256  and  _259
REMARK  119  A    between atoms: _259  and  _260
REMARK  120  A    between atoms: _260  and  _261
REMARK  121  A    between atoms: _263  and  _265
REMARK  122  A    between atoms: _265  and  _266
REMARK  123  A    between atoms: _265  and  _268
REMARK  124  A    between atoms: _268  and  _269
REMARK  125  A    between atoms: _269  and  _270
REMARK  126  A    between atoms: _270  and  _271
REMARK  127  A    between atoms: _280  and  _282
REMARK  128  A    between atoms: _282  and  _283
REMARK  129  A    between atoms: _282  and  _285
REMARK  130  A    between atoms: _285  and  _286
REMARK  131  A    between atoms: _289  and  _291
REMARK  132  A    between atoms: _291  and  _292
REMARK  133  A    between atoms: _291  and  _294
REMARK  134  A    between atoms: _294  and  _295
REMARK  135  A    between atoms: _301  and  _303
REMARK  136  A    between atoms: _303  and  _304
REMARK  137  A    between atoms: _303  and  _306
REMARK  138  A    between atoms: _306  and  _307
REMARK  139  A    between atoms: _307  and  _308
REMARK  140  A    between atoms: _310  and  _312
REMARK  141  A    between atoms: _312  and  _313
REMARK  142  A    between atoms: _312  and  _315
REMARK  143  A    between atoms: _315  and  _316
REMARK  144  A    between atoms: _322  and  _324
REMARK  145  A    between atoms: _324  and  _325
REMARK  146  A    between atoms: _324  and  _327
REMARK  147  A    between atoms: _327  and  _328
REMARK  148  A    between atoms: _330  and  _332
REMARK  149  A    between atoms: _332  and  _333
REMARK  150  A    between atoms: _332  and  _335
REMARK  151  A    between atoms: _335  and  _336
REMARK  152  A    between atoms: _339  and  _341
REMARK  153  A    between atoms: _341  and  _342
REMARK  154  A    between atoms: _341  and  _344
REMARK  155  A    between atoms: _344  and  _345
REMARK  156  A    between atoms: _351  and  _353
REMARK  157  A    between atoms: _353  and  _354
REMARK  158  A    between atoms: _353  and  _356
REMARK  159  A    between atoms: _356  and  _357
REMARK  160  A    between atoms: _360  and  _362
REMARK  161  A    between atoms: _362  and  _363
REMARK  162  A    between atoms: _362  and  _365
REMARK  163  A    between atoms: _365  and  _366
REMARK  164  A    between atoms: _372  and  _374
REMARK  165  A    between atoms: _374  and  _375
REMARK  166  A    between atoms: _374  and  _377
REMARK  167  A    between atoms: _377  and  _378
REMARK  168  A    between atoms: _381  and  _383
REMARK  169  A    between atoms: _383  and  _384
REMARK  170  A    between atoms: _383  and  _386
REMARK  171  A    between atoms: _386  and  _387
REMARK  172  A    between atoms: _387  and  _388
REMARK  173  A    between atoms: _388  and  _389
REMARK  174  A    between atoms: _389  and  ZN_411
REMARK  175  A    between atoms: _391  and  _393
REMARK  176  A    between atoms: _393  and  _394
REMARK  177  A    between atoms: _393  and  _396
REMARK  178  A    between atoms: _396  and  _397
REMARK  179  A    between atoms: _400  and  _402
REMARK  180  A    between atoms: _402  and  _403
REMARK  181  A    between atoms: _402  and  _405
REMARK  182  A    between atoms: _405  and  _406
REMARK                            x       y       z     vdW  Elec       q    Type
REMARK                         _______ _______ _______ _____ _____    ______ ____
ROOT
ATOM      1  CA  THR A   1      30.215  26.263  65.644  0.00  0.00    +0.160 C 
ENDROOT
BRANCH   1   2
ATOM      2  N   THR A   1      29.144  26.408  66.615  0.00  0.00    -0.237 NA
ATOM      3  H   THR A   1      29.337  26.227  67.621  0.00  0.00    +0.142 HD
ENDBRANCH   1   2
BRANCH   1   4
ATOM      4  CB  THR A   1      31.550  25.935  66.336  0.00  0.00    +0.134 C 
ATOM      5  CG2 THR A   1      32.679  25.933  65.305  0.00  0.00    +0.034 C 
BRANCH   4   6
ATOM      6  OG1 THR A   1      31.832  26.929  67.326  0.00  0.00    -0.383 OA
ATOM      7  HG1 THR A   1      31.105  26.939  67.998  0.00  0.00    +0.210 HD
ENDBRANCH   4   6
ENDBRANCH   1   4
BRANCH   1   8
ATOM      8  C   THR A   1      29.907  25.181  64.620  0.00  0.00    +0.227 C 
ATOM      9  O   THR A   1      30.042  25.409  63.410  0.00  0.00    -0.287 OA
ENDBRANCH   1   8
TORSDOF 4
REMARK  Name = ../refined-set-2016/2za0/2za0_pocket.pdb
REMARK  182 active torsions:
REMARK  status: ('A' for Active; 'I' for Inactive)
REMARK    1  A    between atoms: _1  and  _3
REMARK    2  A    between atoms: _3  and  _4
REMARK    3  A    between atoms: _3  and  _6
REMARK    4  A    between atoms: _6  and  _7
REMARK    5  A    between atoms: _7  and  _8
REMARK    6  A    between atoms: _8  and  _9
REMARK    7  A    between atoms: _18  and  _20
REMARK    8  A    between atoms: _20  and  _21
REMARK    9  A    between atoms: _20  and  _23
REMARK   10  A    between atoms: _23  and  _24
REMARK   11  A    between atoms: _28  and  ZN_411
REMARK   12  A    between atoms: _29  and  _31
REMARK   13  A    between atoms: _31  and  _32
REMARK   14  A    between atoms: _31  and  _34
REMARK   15  A    between atoms: _34  and  _35
REMARK   16  A    between atoms: _38  and  _40
REMARK   17  A    between atoms: _40  and  _41
REMARK   18  A    between atoms: _43  and  _45
REMARK   19  A    between atoms: _45  and  _46
REMARK   20  A    between atoms: _45  and  _48
REMARK   21  A    between atoms: _48  and  _49
REMARK   22  A    between atoms: _52  and  _54
REMARK   23  A    between atoms: _54  and  _55
REMARK   24  A    between atoms: _54  and  _57
REMARK   25  A    between atoms: _60  and  _62
REMARK   26  A    between atoms: _62  and  _63
REMARK   27  A    between atoms: _62  and  _65
REMARK   28  A    between atoms: _65  and  _66
REMARK   29  A    between atoms: _66  and  _67
REMARK   30  A    between atoms: _67  and  _68
REMARK   31  A    between atoms: _68  and  _69
REMARK   32  A    between atoms: _73  and  _75
REMARK   33  A    between atoms: _75  and  _76
REMARK   34  A    between atoms: _75  and  _78
REMARK   35  A    between atoms: _78  and  _79
REMARK   36  A    between atoms: _82  and  _84
REMARK   37  A    between atoms: _84  and  _85
REMARK   38  A    between atoms: _87  and  _89
REMARK   39  A    between atoms: _89  and  _90
REMARK   40  A    between atoms: _89  and  _92
REMARK   41  A    between atoms: _92  and  _93
REMARK   42  A    between atoms: _93  and  _94
REMARK   43  A    between atoms: _94  and  _95
REMARK   44  A    between atoms: _95  and  _96
REMARK   45  A    between atoms: _100  and  _102
REMARK   46  A    between atoms: _102  and  _103
REMARK   47  A    between atoms: _102  and  _105
REMARK   48  A    between atoms: _105  and  _106
REMARK   49  A    between atoms: _106  and  _107
REMARK   50  A    between atoms: _109  and  _111
REMARK   51  A    between atoms: _111  and  _112
REMARK   52  A    between atoms: _111  and  _114
REMARK   53  A    between atoms: _114  and  _115
REMARK   54  A    between atoms: _115  and  _116
REMARK   55  A    between atoms: _116  and  _117
REMARK   56  A    between atoms: _117  and  _118
REMARK   57  A    between atoms: _122  and  _124
REMARK   58  A    between atoms: _124  and  _125
REMARK   59  A    between atoms: _124  and  _127
REMARK   60  A    between atoms: _127  and  _128
REMARK   61  A    between atoms: _131  and  _133
REMARK   62  A    between atoms: _133  and  _134
REMARK   63  A    between atoms: _137  and  _139
REMARK   64  A    between atoms: _139  and  _140
REMARK   65  A    between atoms: _139  and  _142
REMARK   66  A    between atoms: _142  and  _143
REMARK   67  A    between atoms: _149  and  _151
REMARK   68  A    between atoms: _151  and  _152
REMARK   69  A    between atoms: _151  and  _154
REMARK   70  A    between atoms: _154  and  _155
REMARK   71  A    between atoms: _165  and  _167
REMARK   72  A    between atoms: _167  and  _168
REMARK   73  A    between atoms: _167  and  _170
REMARK   74  A    between atoms: _170  and  _171
REMARK   75  A    between atoms: _171  and  _172
REMARK   76  A    between atoms: _172  and  _173
REMARK   77  A    between atoms: _173  and  ZN_411
REMARK   78  A    between atoms: _175  and  _177
REMARK   79  A    between atoms: _177  and  _178
REMARK   80  A    between atoms: _177  and  _180
REMARK   81  A    between atoms: _180  and  _181
REMARK   82  A    between atoms: _184  and  _186
REMARK   83  A    between atoms: _186  and  _187
REMARK   84  A    between atoms: _186  and  _189
REMARK   85  A    between atoms: _189  and  _190
REMARK   86  A    between atoms: _193  and  _195
REMARK   87  A    between atoms: _195  and  _196
REMARK   88  A    between atoms: _195  and  _198
REMARK   89  A    between atoms: _198  and  _199
REMARK   90  A    between atoms: _199  and  _200
REMARK   91  A    between atoms: _200  and  _201
REMARK   92  A    between atoms: _201  and  _202
REMARK   93  A    between atoms: _206  and  _208
REMARK   94  A    between atoms: _208  and  _209
REMARK   95  A    between atoms: _208  and  _211
REMARK   96  A    between atoms: _211  and  _212
REMARK   97  A    between atoms: _215  and  _217
REMARK   98  A    between atoms: _217  and  _218
REMARK   99  A    between atoms: _221  and  _223
REMARK  100  A    between atoms: _223  and  _224
REMARK  101  A    between atoms: _223  and  _226
REMARK  102  A    between atoms: _226  and  _227
REMARK  103  A    between atoms: _230  and  _232
REMARK  104  A    between atoms: _232  and  _233
REMARK  105  A    between atoms: _232  and  _235
REMARK  106  A    between atoms: _235  and  _236
REMARK  107  A    between atoms: _236  and  _237
REMARK  108  A    between atoms: _242  and  _244
REMARK  109  A    between atoms: _244  and  _245
REMARK  110  A    between atoms: _244  and  _247
REMARK  111  A    between atoms: _247  and  _248
REMARK  112  A    between atoms: _248  and  _249
REMARK  113  A    between atoms: _249  and  _250
REMARK  114  A    between atoms: _249  and  _251
REMARK  115  A    between atoms: _250  and  ZN_411
REMARK  116  A    between atoms: _254  and  _256
REMARK  117  A    between atoms: _256  and  _257
REMARK  118  A    between atoms: _256  and  _259
REMARK  119  A    between atoms: _259  and  _260
REMARK  120  A    between atoms: _260  and  _261
REMARK  121  A    between atoms: _263  and  _265
REMARK  122  A    between atoms: _265  and  _266
REMARK  123  A    between atoms: _265  and  _268
REMARK  124  A    between atoms: _268  and  _269
REMARK  125  A    between atoms: _269  and  _270
REMARK  126  A    between atoms: _270  and  _271
REMARK  127  A    between atoms: _280  and  _282
REMARK  128  A    between atoms: _282  and  _283
REMARK  129  A    between atoms: _282  and  _285
REMARK  130  A    between atoms: _285  and  _286
REMARK  131  A    between atoms: _289  and  _291
REMARK  132  A    between atoms: _291  and  _292
REMARK  133  A    between atoms: _291  and  _294
REMARK  134  A    between atoms: _294  and  _295
REMARK  135  A    between atoms: _301  and  _303
REMARK  136  A    between atoms: _303  and  _304
REMARK  137  A    between atoms: _303  and  _306
REMARK  138  A    between atoms: _306  and  _307
REMARK  139  A    between atoms: _307  and  _308
REMARK  140  A    between atoms: _310  and  _312
REMARK  141  A    between atoms: _312  and  _313
REMARK  142  A    between atoms: _312  and  _315
REMARK  143  A    between atoms: _315  and  _316
REMARK  144  A    between atoms: _322  and  _324
REMARK  145  A    between atoms: _324  and  _325
REMARK  146  A    between atoms: _324  and  _327
REMARK  147  A    between atoms: _327  and  _328
REMARK  148  A    between atoms: _330  and  _332
REMARK  149  A    between atoms: _332  and  _333
REMARK  150  A    between atoms: _332  and  _335
REMARK  151  A    between atoms: _335  and  _336
REMARK  152  A    between atoms: _339  and  _341
REMARK  153  A    between atoms: _341  and  _342
REMARK  154  A    between atoms: _341  and  _344
REMARK  155  A    between atoms: _344  and  _345
REMARK  156  A    between atoms: _351  and  _353
REMARK  157  A    between atoms: _353  and  _354
REMARK  158  A    between atoms: _353  and  _356
REMARK  159  A    between atoms: _356  and  _357
REMARK  160  A    between atoms: _360  and  _362
REMARK  161  A    between atoms: _362  and  _363
REMARK  162  A    between atoms: _362  and  _365
REMARK  163  A    between atoms: _365  and  _366
REMARK  164  A    between atoms: _372  and  _374
REMARK  165  A    between atoms: _374  and  _375
REMARK  166  A    between atoms: _374  and  _377
REMARK  167  A    between atoms: _377  and  _378
REMARK  168  A    between atoms: _381  and  _383
REMARK  169  A    between atoms: _383  and  _384
REMARK  170  A    between atoms: _383  and  _386
REMARK  171  A    between atoms: _386  and  _387
REMARK  172  A    between atoms: _387  and  _388
REMARK  173  A    between atoms: _388  and  _389
REMARK  174  A    between atoms: _389  and  ZN_411
REMARK  175  A    between atoms: _391  and  _393
REMARK  176  A    between atoms: _393  and  _394
REMARK  177  A    between atoms: _393  and  _396
REMARK  178  A    between atoms: _396  and  _397
REMARK  179  A    between atoms: _400  and  _402
REMARK  180  A    between atoms: _402  and  _403
REMARK  181  A    between atoms: _402  and  _405
REMARK  182  A    between atoms: _405  and  _406
REMARK                            x       y       z     vdW  Elec       q    Type
REMARK                         _______ _______ _______ _____ _____    ______ ____
ROOT
ATOM      1  CB  PHE A   1      31.471  24.855  60.216  0.00  0.00    +0.000 C 
ENDROOT
BRANCH   1   2
ATOM      2  CG  PHE A   1      32.464  25.971  60.444  0.00  0.00    +0.000 A 
ATOM      3  CD2 PHE A   1      32.438  26.721  61.616  0.00  0.00    +0.000 A 
ATOM      4  CE2 PHE A   1      33.295  27.811  61.789  0.00  0.00    +0.000 A 
ATOM      5  CZ  PHE A   1      34.192  28.155  60.798  0.00  0.00    +0.000 A 
ATOM      6  CE1 PHE A   1      34.242  27.414  59.628  0.00  0.00    +0.000 A 
ATOM      7  CD1 PHE A   1      33.370  26.323  59.453  0.00  0.00    +0.000 A 
ENDBRANCH   1   2
BRANCH   1   8
ATOM      8  CA  PHE A   1      30.173  25.330  59.548  0.00  0.00    +0.000 C 
BRANCH   8   9
ATOM      9  N   PHE A   1      29.338  25.977  60.548  0.00  0.00    +0.000 NA
ATOM     10  H   PHE A   1      29.467  25.748  61.554  0.00  0.00    +0.000 HD
ENDBRANCH   8   9
BRANCH   8  11
ATOM     11  C   PHE A   1      29.508  24.244  58.720  0.00  0.00    +0.000 C 
ATOM     12  O   PHE A   1      30.147  23.667  57.835  0.00  0.00    +0.000 OA
ENDBRANCH   8  11
ENDBRANCH   1   8
TORSDOF 4
REMARK  Name = ../refined-set-2016/2za0/2za0_pocket.pdb
REMARK  182 active torsions:
REMARK  status: ('A' for Active; 'I' for Inactive)
REMARK    1  A    between atoms: _1  and  _3
REMARK    2  A    between atoms: _3  and  _4
REMARK    3  A    between atoms: _3  and  _6
REMARK    4  A    between atoms: _6  and  _7
REMARK    5  A    between atoms: _7  and  _8
REMARK    6  A    between atoms: _8  and  _9
REMARK    7  A    between atoms: _18  and  _20
REMARK    8  A    between atoms: _20  and  _21
REMARK    9  A    between atoms: _20  and  _23
REMARK   10  A    between atoms: _23  and  _24
REMARK   11  A    between atoms: _28  and  ZN_411
REMARK   12  A    between atoms: _29  and  _31
REMARK   13  A    between atoms: _31  and  _32
REMARK   14  A    between atoms: _31  and  _34
REMARK   15  A    between atoms: _34  and  _35
REMARK   16  A    between atoms: _38  and  _40
REMARK   17  A    between atoms: _40  and  _41
REMARK   18  A    between atoms: _43  and  _45
REMARK   19  A    between atoms: _45  and  _46
REMARK   20  A    between atoms: _45  and  _48
REMARK   21  A    between atoms: _48  and  _49
REMARK   22  A    between atoms: _52  and  _54
REMARK   23  A    between atoms: _54  and  _55
REMARK   24  A    between atoms: _54  and  _57
REMARK   25  A    between atoms: _60  and  _62
REMARK   26  A    between atoms: _62  and  _63
REMARK   27  A    between atoms: _62  and  _65
REMARK   28  A    between atoms: _65  and  _66
REMARK   29  A    between atoms: _66  and  _67
REMARK   30  A    between atoms: _67  and  _68
REMARK   31  A    between atoms: _68  and  _69
REMARK   32  A    between atoms: _73  and  _75
REMARK   33  A    between atoms: _75  and  _76
REMARK   34  A    between atoms: _75  and  _78
REMARK   35  A    between atoms: _78  and  _79
REMARK   36  A    between atoms: _82  and  _84
REMARK   37  A    between atoms: _84  and  _85
REMARK   38  A    between atoms: _87  and  _89
REMARK   39  A    between atoms: _89  and  _90
REMARK   40  A    between atoms: _89  and  _92
REMARK   41  A    between atoms: _92  and  _93
REMARK   42  A    between atoms: _93  and  _94
REMARK   43  A    between atoms: _94  and  _95
REMARK   44  A    between atoms: _95  and  _96
REMARK   45  A    between atoms: _100  and  _102
REMARK   46  A    between atoms: _102  and  _103
REMARK   47  A    between atoms: _102  and  _105
REMARK   48  A    between atoms: _105  and  _106
REMARK   49  A    between atoms: _106  and  _107
REMARK   50  A    between atoms: _109  and  _111
REMARK   51  A    between atoms: _111  and  _112
REMARK   52  A    between atoms: _111  and  _114
REMARK   53  A    between atoms: _114  and  _115
REMARK   54  A    between atoms: _115  and  _116
REMARK   55  A    between atoms: _116  and  _117
REMARK   56  A    between atoms: _117  and  _118
REMARK   57  A    between atoms: _122  and  _124
REMARK   58  A    between atoms: _124  and  _125
REMARK   59  A    between atoms: _124  and  _127
REMARK   60  A    between atoms: _127  and  _128
REMARK   61  A    between atoms: _131  and  _133
REMARK   62  A    between atoms: _133  and  _134
REMARK   63  A    between atoms: _137  and  _139
REMARK   64  A    between atoms: _139  and  _140
REMARK   65  A    between atoms: _139  and  _142
REMARK   66  A    between atoms: _142  and  _143
REMARK   67  A    between atoms: _149  and  _151
REMARK   68  A    between atoms: _151  and  _152
REMARK   69  A    between atoms: _151  and  _154
REMARK   70  A    between atoms: _154  and  _155
REMARK   71  A    between atoms: _165  and  _167
REMARK   72  A    between atoms: _167  and  _168
REMARK   73  A    between atoms: _167  and  _170
REMARK   74  A    between atoms: _170  and  _171
REMARK   75  A    between atoms: _171  and  _172
REMARK   76  A    between atoms: _172  and  _173
REMARK   77  A    between atoms: _173  and  ZN_411
REMARK   78  A    between atoms: _175  and  _177
REMARK   79  A    between atoms: _177  and  _178
REMARK   80  A    between atoms: _177  and  _180
REMARK   81  A    between atoms: _180  and  _181
REMARK   82  A    between atoms: _184  and  _186
REMARK   83  A    between atoms: _186  and  _187
REMARK   84  A    between atoms: _186  and  _189
REMARK   85  A    between atoms: _189  and  _190
REMARK   86  A    between atoms: _193  and  _195
REMARK   87  A    between atoms: _195  and  _196
REMARK   88  A    between atoms: _195  and  _198
REMARK   89  A    between atoms: _198  and  _199
REMARK   90  A    between atoms: _199  and  _200
REMARK   91  A    between atoms: _200  and  _201
REMARK   92  A    between atoms: _201  and  _202
REMARK   93  A    between atoms: _206  and  _208
REMARK   94  A    between atoms: _208  and  _209
REMARK   95  A    between atoms: _208  and  _211
REMARK   96  A    between atoms: _211  and  _212
REMARK   97  A    between atoms: _215  and  _217
REMARK   98  A    between atoms: _217  and  _218
REMARK   99  A    between atoms: _221  and  _223
REMARK  100  A    between atoms: _223  and  _224
REMARK  101  A    between atoms: _223  and  _226
REMARK  102  A    between atoms: _226  and  _227
REMARK  103  A    between atoms: _230  and  _232
REMARK  104  A    between atoms: _232  and  _233
REMARK  105  A    between atoms: _232  and  _235
REMARK  106  A    between atoms: _235  and  _236
REMARK  107  A    between atoms: _236  and  _237
REMARK  108  A    between atoms: _242  and  _244
REMARK  109  A    between atoms: _244  and  _245
REMARK  110  A    between atoms: _244  and  _247
REMARK  111  A    between atoms: _247  and  _248
REMARK  112  A    between atoms: _248  and  _249
REMARK  113  A    between atoms: _249  and  _250
REMARK  114  A    between atoms: _249  and  _251
REMARK  115  A    between atoms: _250  and  ZN_411
REMARK  116  A    between atoms: _254  and  _256
REMARK  117  A    between atoms: _256  and  _257
REMARK  118  A    between atoms: _256  and  _259
REMARK  119  A    between atoms: _259  and  _260
REMARK  120  A    between atoms: _260  and  _261
REMARK  121  A    between atoms: _263  and  _265
REMARK  122  A    between atoms: _265  and  _266
REMARK  123  A    between atoms: _265  and  _268
REMARK  124  A    between atoms: _268  and  _269
REMARK  125  A    between atoms: _269  and  _270
REMARK  126  A    between atoms: _270  and  _271
REMARK  127  A    between atoms: _280  and  _282
REMARK  128  A    between atoms: _282  and  _283
REMARK  129  A    between atoms: _282  and  _285
REMARK  130  A    between atoms: _285  and  _286
REMARK  131  A    between atoms: _289  and  _291
REMARK  132  A    between atoms: _291  and  _292
REMARK  133  A    between atoms: _291  and  _294
REMARK  134  A    between atoms: _294  and  _295
REMARK  135  A    between atoms: _301  and  _303
REMARK  136  A    between atoms: _303  and  _304
REMARK  137  A    between atoms: _303  and  _306
REMARK  138  A    between atoms: _306  and  _307
REMARK  139  A    between atoms: _307  and  _308
REMARK  140  A    between atoms: _310  and  _312
REMARK  141  A    between atoms: _312  and  _313
REMARK  142  A    between atoms: _312  and  _315
REMARK  143  A    between atoms: _315  and  _316
REMARK  144  A    between atoms: _322  and  _324
REMARK  145  A    between atoms: _324  and  _325
REMARK  146  A    between atoms: _324  and  _327
REMARK  147  A    between atoms: _327  and  _328
REMARK  148  A    between atoms: _330  and  _332
REMARK  149  A    between atoms: _332  and  _333
REMARK  150  A    between atoms: _332  and  _335
REMARK  151  A    between atoms: _335  and  _336
REMARK  152  A    between atoms: _339  and  _341
REMARK  153  A    between atoms: _341  and  _342
REMARK  154  A    between atoms: _341  and  _344
REMARK  155  A    between atoms: _344  and  _345
REMARK  156  A    between atoms: _351  and  _353
REMARK  157  A    between atoms: _353  and  _354
REMARK  158  A    between atoms: _353  and  _356
REMARK  159  A    between atoms: _356  and  _357
REMARK  160  A    between atoms: _360  and  _362
REMARK  161  A    between atoms: _362  and  _363
REMARK  162  A    between atoms: _362  and  _365
REMARK  163  A    between atoms: _365  and  _366
REMARK  164  A    between atoms: _372  and  _374
REMARK  165  A    between atoms: _374  and  _375
REMARK  166  A    between atoms: _374  and  _377
REMARK  167  A    between atoms: _377  and  _378
REMARK  168  A    between atoms: _381  and  _383
REMARK  169  A    between atoms: _383  and  _384
REMARK  170  A    between atoms: _383  and  _386
REMARK  171  A    between atoms: _386  and  _387
REMARK  172  A    between atoms: _387  and  _388
REMARK  173  A    between atoms: _388  and  _389
REMARK  174  A    between atoms: _389  and  ZN_411
REMARK  175  A    between atoms: _391  and  _393
REMARK  176  A    between atoms: _393  and  _394
REMARK  177  A    between atoms: _393  and  _396
REMARK  178  A    between atoms: _396  and  _397
REMARK  179  A    between atoms: _400  and  _402
REMARK  180  A    between atoms: _402  and  _403
REMARK  181  A    between atoms: _402  and  _405
REMARK  182  A    between atoms: _405  and  _406
REMARK                            x       y       z     vdW  Elec       q    Type
REMARK                         _______ _______ _______ _____ _____    ______ ____
ROOT
ATOM      1  CA  THR A   1      28.035  31.280  53.970  0.00  0.00    +0.000 C 
ENDROOT
BRANCH   1   2
ATOM      2  N   THR A   1      27.738  30.240  53.005  0.00  0.00    +0.000 NA
ATOM      3  H   THR A   1      28.376  29.425  52.902  0.00  0.00    +0.000 HD
ENDBRANCH   1   2
BRANCH   1   4
ATOM      4  CB  THR A   1      28.501  30.727  55.343  0.00  0.00    +0.000 C 
ATOM      5  CG2 THR A   1      27.581  29.587  55.811  0.00  0.00    +0.000 C 
BRANCH   4   6
ATOM      6  OG1 THR A   1      29.854  30.246  55.255  0.00  0.00    +0.000 OA
ATOM      7  HG1 THR A   1      29.903  29.522  54.581  0.00  0.00    +0.000 HD
ENDBRANCH   4   6
ENDBRANCH   1   4
BRANCH   1   8
ATOM      8  C   THR A   1      29.159  32.127  53.383  0.00  0.00    +0.000 C 
ATOM      9  O   THR A   1      29.861  31.726  52.442  0.00  0.00    +0.000 OA
ENDBRANCH   1   8
TORSDOF 4
REMARK  Name = ../refined-set-2016/2za0/2za0_pocket.pdb
REMARK  182 active torsions:
REMARK  status: ('A' for Active; 'I' for Inactive)
REMARK    1  A    between atoms: _1  and  _3
REMARK    2  A    between atoms: _3  and  _4
REMARK    3  A    between atoms: _3  and  _6
REMARK    4  A    between atoms: _6  and  _7
REMARK    5  A    between atoms: _7  and  _8
REMARK    6  A    between atoms: _8  and  _9
REMARK    7  A    between atoms: _18  and  _20
REMARK    8  A    between atoms: _20  and  _21
REMARK    9  A    between atoms: _20  and  _23
REMARK   10  A    between atoms: _23  and  _24
REMARK   11  A    between atoms: _28  and  ZN_411
REMARK   12  A    between atoms: _29  and  _31
REMARK   13  A    between atoms: _31  and  _32
REMARK   14  A    between atoms: _31  and  _34
REMARK   15  A    between atoms: _34  and  _35
REMARK   16  A    between atoms: _38  and  _40
REMARK   17  A    between atoms: _40  and  _41
REMARK   18  A    between atoms: _43  and  _45
REMARK   19  A    between atoms: _45  and  _46
REMARK   20  A    between atoms: _45  and  _48
REMARK   21  A    between atoms: _48  and  _49
REMARK   22  A    between atoms: _52  and  _54
REMARK   23  A    between atoms: _54  and  _55
REMARK   24  A    between atoms: _54  and  _57
REMARK   25  A    between atoms: _60  and  _62
REMARK   26  A    between atoms: _62  and  _63
REMARK   27  A    between atoms: _62  and  _65
REMARK   28  A    between atoms: _65  and  _66
REMARK   29  A    between atoms: _66  and  _67
REMARK   30  A    between atoms: _67  and  _68
REMARK   31  A    between atoms: _68  and  _69
REMARK   32  A    between atoms: _73  and  _75
REMARK   33  A    between atoms: _75  and  _76
REMARK   34  A    between atoms: _75  and  _78
REMARK   35  A    between atoms: _78  and  _79
REMARK   36  A    between atoms: _82  and  _84
REMARK   37  A    between atoms: _84  and  _85
REMARK   38  A    between atoms: _87  and  _89
REMARK   39  A    between atoms: _89  and  _90
REMARK   40  A    between atoms: _89  and  _92
REMARK   41  A    between atoms: _92  and  _93
REMARK   42  A    between atoms: _93  and  _94
REMARK   43  A    between atoms: _94  and  _95
REMARK   44  A    between atoms: _95  and  _96
REMARK   45  A    between atoms: _100  and  _102
REMARK   46  A    between atoms: _102  and  _103
REMARK   47  A    between atoms: _102  and  _105
REMARK   48  A    between atoms: _105  and  _106
REMARK   49  A    between atoms: _106  and  _107
REMARK   50  A    between atoms: _109  and  _111
REMARK   51  A    between atoms: _111  and  _112
REMARK   52  A    between atoms: _111  and  _114
REMARK   53  A    between atoms: _114  and  _115
REMARK   54  A    between atoms: _115  and  _116
REMARK   55  A    between atoms: _116  and  _117
REMARK   56  A    between atoms: _117  and  _118
REMARK   57  A    between atoms: _122  and  _124
REMARK   58  A    between atoms: _124  and  _125
REMARK   59  A    between atoms: _124  and  _127
REMARK   60  A    between atoms: _127  and  _128
REMARK   61  A    between atoms: _131  and  _133
REMARK   62  A    between atoms: _133  and  _134
REMARK   63  A    between atoms: _137  and  _139
REMARK   64  A    between atoms: _139  and  _140
REMARK   65  A    between atoms: _139  and  _142
REMARK   66  A    between atoms: _142  and  _143
REMARK   67  A    between atoms: _149  and  _151
REMARK   68  A    between atoms: _151  and  _152
REMARK   69  A    between atoms: _151  and  _154
REMARK   70  A    between atoms: _154  and  _155
REMARK   71  A    between atoms: _165  and  _167
REMARK   72  A    between atoms: _167  and  _168
REMARK   73  A    between atoms: _167  and  _170
REMARK   74  A    between atoms: _170  and  _171
REMARK   75  A    between atoms: _171  and  _172
REMARK   76  A    between atoms: _172  and  _173
REMARK   77  A    between atoms: _173  and  ZN_411
REMARK   78  A    between atoms: _175  and  _177
REMARK   79  A    between atoms: _177  and  _178
REMARK   80  A    between atoms: _177  and  _180
REMARK   81  A    between atoms: _180  and  _181
REMARK   82  A    between atoms: _184  and  _186
REMARK   83  A    between atoms: _186  and  _187
REMARK   84  A    between atoms: _186  and  _189
REMARK   85  A    between atoms: _189  and  _190
REMARK   86  A    between atoms: _193  and  _195
REMARK   87  A    between atoms: _195  and  _196
REMARK   88  A    between atoms: _195  and  _198
REMARK   89  A    between atoms: _198  and  _199
REMARK   90  A    between atoms: _199  and  _200
REMARK   91  A    between atoms: _200  and  _201
REMARK   92  A    between atoms: _201  and  _202
REMARK   93  A    between atoms: _206  and  _208
REMARK   94  A    between atoms: _208  and  _209
REMARK   95  A    between atoms: _208  and  _211
REMARK   96  A    between atoms: _211  and  _212
REMARK   97  A    between atoms: _215  and  _217
REMARK   98  A    between atoms: _217  and  _218
REMARK   99  A    between atoms: _221  and  _223
REMARK  100  A    between atoms: _223  and  _224
REMARK  101  A    between atoms: _223  and  _226
REMARK  102  A    between atoms: _226  and  _227
REMARK  103  A    between atoms: _230  and  _232
REMARK  104  A    between atoms: _232  and  _233
REMARK  105  A    between atoms: _232  and  _235
REMARK  106  A    between atoms: _235  and  _236
REMARK  107  A    between atoms: _236  and  _237
REMARK  108  A    between atoms: _242  and  _244
REMARK  109  A    between atoms: _244  and  _245
REMARK  110  A    between atoms: _244  and  _247
REMARK  111  A    between atoms: _247  and  _248
REMARK  112  A    between atoms: _248  and  _249
REMARK  113  A    between atoms: _249  and  _250
REMARK  114  A    between atoms: _249  and  _251
REMARK  115  A    between atoms: _250  and  ZN_411
REMARK  116  A    between atoms: _254  and  _256
REMARK  117  A    between atoms: _256  and  _257
REMARK  118  A    between atoms: _256  and  _259
REMARK  119  A    between atoms: _259  and  _260
REMARK  120  A    between atoms: _260  and  _261
REMARK  121  A    between atoms: _263  and  _265
REMARK  122  A    between atoms: _265  and  _266
REMARK  123  A    between atoms: _265  and  _268
REMARK  124  A    between atoms: _268  and  _269
REMARK  125  A    between atoms: _269  and  _270
REMARK  126  A    between atoms: _270  and  _271
REMARK  127  A    between atoms: _280  and  _282
REMARK  128  A    between atoms: _282  and  _283
REMARK  129  A    between atoms: _282  and  _285
REMARK  130  A    between atoms: _285  and  _286
REMARK  131  A    between atoms: _289  and  _291
REMARK  132  A    between atoms: _291  and  _292
REMARK  133  A    between atoms: _291  and  _294
REMARK  134  A    between atoms: _294  and  _295
REMARK  135  A    between atoms: _301  and  _303
REMARK  136  A    between atoms: _303  and  _304
REMARK  137  A    between atoms: _303  and  _306
REMARK  138  A    between atoms: _306  and  _307
REMARK  139  A    between atoms: _307  and  _308
REMARK  140  A    between atoms: _310  and  _312
REMARK  141  A    between atoms: _312  and  _313
REMARK  142  A    between atoms: _312  and  _315
REMARK  143  A    between atoms: _315  and  _316
REMARK  144  A    between atoms: _322  and  _324
REMARK  145  A    between atoms: _324  and  _325
REMARK  146  A    between atoms: _324  and  _327
REMARK  147  A    between atoms: _327  and  _328
REMARK  148  A    between atoms: _330  and  _332
REMARK  149  A    between atoms: _332  and  _333
REMARK  150  A    between atoms: _332  and  _335
REMARK  151  A    between atoms: _335  and  _336
REMARK  152  A    between atoms: _339  and  _341
REMARK  153  A    between atoms: _341  and  _342
REMARK  154  A    between atoms: _341  and  _344
REMARK  155  A    between atoms: _344  and  _345
REMARK  156  A    between atoms: _351  and  _353
REMARK  157  A    between atoms: _353  and  _354
REMARK  158  A    between atoms: _353  and  _356
REMARK  159  A    between atoms: _356  and  _357
REMARK  160  A    between atoms: _360  and  _362
REMARK  161  A    between atoms: _362  and  _363
REMARK  162  A    between atoms: _362  and  _365
REMARK  163  A    between atoms: _365  and  _366
REMARK  164  A    between atoms: _372  and  _374
REMARK  165  A    between atoms: _374  and  _375
REMARK  166  A    between atoms: _374  and  _377
REMARK  167  A    between atoms: _377  and  _378
REMARK  168  A    between atoms: _381  and  _383
REMARK  169  A    between atoms: _383  and  _384
REMARK  170  A    between atoms: _383  and  _386
REMARK  171  A    between atoms: _386  and  _387
REMARK  172  A    between atoms: _387  and  _388
REMARK  173  A    between atoms: _388  and  _389
REMARK  174  A    between atoms: _389  and  ZN_411
REMARK  175  A    between atoms: _391  and  _393
REMARK  176  A    between atoms: _393  and  _394
REMARK  177  A    between atoms: _393  and  _396
REMARK  178  A    between atoms: _396  and  _397
REMARK  179  A    between atoms: _400  and  _402
REMARK  180  A    between atoms: _402  and  _403
REMARK  181  A    between atoms: _402  and  _405
REMARK  182  A    between atoms: _405  and  _406
REMARK                            x       y       z     vdW  Elec       q    Type
REMARK                         _______ _______ _______ _____ _____    ______ ____
ROOT
ATOM      1  CA  THR A   1      38.438  37.862  57.405  0.00  0.00    +0.000 C 
ENDROOT
BRANCH   1   2
ATOM      2  N   THR A   1      37.240  37.899  56.589  0.00  0.00    +0.000 NA
ATOM      3  H   THR A   1      37.334  38.042  55.563  0.00  0.00    +0.000 HD
ENDBRANCH   1   2
BRANCH   1   4
ATOM      4  C   THR A   1      38.932  39.269  57.660  0.00  0.00    +0.000 C 
ATOM      5  O   THR A   1      39.204  40.012  56.719  0.00  0.00    +0.000 OA
ENDBRANCH   1   4
BRANCH   1   6
ATOM      6  CB  THR A   1      39.560  37.054  56.682  0.00  0.00    +0.000 C 
ATOM      7  CG2 THR A   1      40.830  37.009  57.536  0.00  0.00    +0.000 C 
BRANCH   6   8
ATOM      8  OG1 THR A   1      39.115  35.725  56.432  0.00  0.00    +0.000 OA
ATOM      9  HG1 THR A   1      39.832  35.219  55.973  0.00  0.00    +0.000 HD
ENDBRANCH   6   8
ENDBRANCH   1   6
TORSDOF 4
REMARK  Name = ../refined-set-2016/2za0/2za0_pocket.pdb
REMARK  182 active torsions:
REMARK  status: ('A' for Active; 'I' for Inactive)
REMARK    1  A    between atoms: _1  and  _3
REMARK    2  A    between atoms: _3  and  _4
REMARK    3  A    between atoms: _3  and  _6
REMARK    4  A    between atoms: _6  and  _7
REMARK    5  A    between atoms: _7  and  _8
REMARK    6  A    between atoms: _8  and  _9
REMARK    7  A    between atoms: _18  and  _20
REMARK    8  A    between atoms: _20  and  _21
REMARK    9  A    between atoms: _20  and  _23
REMARK   10  A    between atoms: _23  and  _24
REMARK   11  A    between atoms: _28  and  ZN_411
REMARK   12  A    between atoms: _29  and  _31
REMARK   13  A    between atoms: _31  and  _32
REMARK   14  A    between atoms: _31  and  _34
REMARK   15  A    between atoms: _34  and  _35
REMARK   16  A    between atoms: _38  and  _40
REMARK   17  A    between atoms: _40  and  _41
REMARK   18  A    between atoms: _43  and  _45
REMARK   19  A    between atoms: _45  and  _46
REMARK   20  A    between atoms: _45  and  _48
REMARK   21  A    between atoms: _48  and  _49
REMARK   22  A    between atoms: _52  and  _54
REMARK   23  A    between atoms: _54  and  _55
REMARK   24  A    between atoms: _54  and  _57
REMARK   25  A    between atoms: _60  and  _62
REMARK   26  A    between atoms: _62  and  _63
REMARK   27  A    between atoms: _62  and  _65
REMARK   28  A    between atoms: _65  and  _66
REMARK   29  A    between atoms: _66  and  _67
REMARK   30  A    between atoms: _67  and  _68
REMARK   31  A    between atoms: _68  and  _69
REMARK   32  A    between atoms: _73  and  _75
REMARK   33  A    between atoms: _75  and  _76
REMARK   34  A    between atoms: _75  and  _78
REMARK   35  A    between atoms: _78  and  _79
REMARK   36  A    between atoms: _82  and  _84
REMARK   37  A    between atoms: _84  and  _85
REMARK   38  A    between atoms: _87  and  _89
REMARK   39  A    between atoms: _89  and  _90
REMARK   40  A    between atoms: _89  and  _92
REMARK   41  A    between atoms: _92  and  _93
REMARK   42  A    between atoms: _93  and  _94
REMARK   43  A    between atoms: _94  and  _95
REMARK   44  A    between atoms: _95  and  _96
REMARK   45  A    between atoms: _100  and  _102
REMARK   46  A    between atoms: _102  and  _103
REMARK   47  A    between atoms: _102  and  _105
REMARK   48  A    between atoms: _105  and  _106
REMARK   49  A    between atoms: _106  and  _107
REMARK   50  A    between atoms: _109  and  _111
REMARK   51  A    between atoms: _111  and  _112
REMARK   52  A    between atoms: _111  and  _114
REMARK   53  A    between atoms: _114  and  _115
REMARK   54  A    between atoms: _115  and  _116
REMARK   55  A    between atoms: _116  and  _117
REMARK   56  A    between atoms: _117  and  _118
REMARK   57  A    between atoms: _122  and  _124
REMARK   58  A    between atoms: _124  and  _125
REMARK   59  A    between atoms: _124  and  _127
REMARK   60  A    between atoms: _127  and  _128
REMARK   61  A    between atoms: _131  and  _133
REMARK   62  A    between atoms: _133  and  _134
REMARK   63  A    between atoms: _137  and  _139
REMARK   64  A    between atoms: _139  and  _140
REMARK   65  A    between atoms: _139  and  _142
REMARK   66  A    between atoms: _142  and  _143
REMARK   67  A    between atoms: _149  and  _151
REMARK   68  A    between atoms: _151  and  _152
REMARK   69  A    between atoms: _151  and  _154
REMARK   70  A    between atoms: _154  and  _155
REMARK   71  A    between atoms: _165  and  _167
REMARK   72  A    between atoms: _167  and  _168
REMARK   73  A    between atoms: _167  and  _170
REMARK   74  A    between atoms: _170  and  _171
REMARK   75  A    between atoms: _171  and  _172
REMARK   76  A    between atoms: _172  and  _173
REMARK   77  A    between atoms: _173  and  ZN_411
REMARK   78  A    between atoms: _175  and  _177
REMARK   79  A    between atoms: _177  and  _178
REMARK   80  A    between atoms: _177  and  _180
REMARK   81  A    between atoms: _180  and  _181
REMARK   82  A    between atoms: _184  and  _186
REMARK   83  A    between atoms: _186  and  _187
REMARK   84  A    between atoms: _186  and  _189
REMARK   85  A    between atoms: _189  and  _190
REMARK   86  A    between atoms: _193  and  _195
REMARK   87  A    between atoms: _195  and  _196
REMARK   88  A    between atoms: _195  and  _198
REMARK   89  A    between atoms: _198  and  _199
REMARK   90  A    between atoms: _199  and  _200
REMARK   91  A    between atoms: _200  and  _201
REMARK   92  A    between atoms: _201  and  _202
REMARK   93  A    between atoms: _206  and  _208
REMARK   94  A    between atoms: _208  and  _209
REMARK   95  A    between atoms: _208  and  _211
REMARK   96  A    between atoms: _211  and  _212
REMARK   97  A    between atoms: _215  and  _217
REMARK   98  A    between atoms: _217  and  _218
REMARK   99  A    between atoms: _221  and  _223
REMARK  100  A    between atoms: _223  and  _224
REMARK  101  A    between atoms: _223  and  _226
REMARK  102  A    between atoms: _226  and  _227
REMARK  103  A    between atoms: _230  and  _232
REMARK  104  A    between atoms: _232  and  _233
REMARK  105  A    between atoms: _232  and  _235
REMARK  106  A    between atoms: _235  and  _236
REMARK  107  A    between atoms: _236  and  _237
REMARK  108  A    between atoms: _242  and  _244
REMARK  109  A    between atoms: _244  and  _245
REMARK  110  A    between atoms: _244  and  _247
REMARK  111  A    between atoms: _247  and  _248
REMARK  112  A    between atoms: _248  and  _249
REMARK  113  A    between atoms: _249  and  _250
REMARK  114  A    between atoms: _249  and  _251
REMARK  115  A    between atoms: _250  and  ZN_411
REMARK  116  A    between atoms: _254  and  _256
REMARK  117  A    between atoms: _256  and  _257
REMARK  118  A    between atoms: _256  and  _259
REMARK  119  A    between atoms: _259  and  _260
REMARK  120  A    between atoms: _260  and  _261
REMARK  121  A    between atoms: _263  and  _265
REMARK  122  A    between atoms: _265  and  _266
REMARK  123  A    between atoms: _265  and  _268
REMARK  124  A    between atoms: _268  and  _269
REMARK  125  A    between atoms: _269  and  _270
REMARK  126  A    between atoms: _270  and  _271
REMARK  127  A    between atoms: _280  and  _282
REMARK  128  A    between atoms: _282  and  _283
REMARK  129  A    between atoms: _282  and  _285
REMARK  130  A    between atoms: _285  and  _286
REMARK  131  A    between atoms: _289  and  _291
REMARK  132  A    between atoms: _291  and  _292
REMARK  133  A    between atoms: _291  and  _294
REMARK  134  A    between atoms: _294  and  _295
REMARK  135  A    between atoms: _301  and  _303
REMARK  136  A    between atoms: _303  and  _304
REMARK  137  A    between atoms: _303  and  _306
REMARK  138  A    between atoms: _306  and  _307
REMARK  139  A    between atoms: _307  and  _308
REMARK  140  A    between atoms: _310  and  _312
REMARK  141  A    between atoms: _312  and  _313
REMARK  142  A    between atoms: _312  and  _315
REMARK  143  A    between atoms: _315  and  _316
REMARK  144  A    between atoms: _322  and  _324
REMARK  145  A    between atoms: _324  and  _325
REMARK  146  A    between atoms: _324  and  _327
REMARK  147  A    between atoms: _327  and  _328
REMARK  148  A    between atoms: _330  and  _332
REMARK  149  A    between atoms: _332  and  _333
REMARK  150  A    between atoms: _332  and  _335
REMARK  151  A    between atoms: _335  and  _336
REMARK  152  A    between atoms: _339  and  _341
REMARK  153  A    between atoms: _341  and  _342
REMARK  154  A    between atoms: _341  and  _344
REMARK  155  A    between atoms: _344  and  _345
REMARK  156  A    between atoms: _351  and  _353
REMARK  157  A    between atoms: _353  and  _354
REMARK  158  A    between atoms: _353  and  _356
REMARK  159  A    between atoms: _356  and  _357
REMARK  160  A    between atoms: _360  and  _362
REMARK  161  A    between atoms: _362  and  _363
REMARK  162  A    between atoms: _362  and  _365
REMARK  163  A    between atoms: _365  and  _366
REMARK  164  A    between atoms: _372  and  _374
REMARK  165  A    between atoms: _374  and  _375
REMARK  166  A    between atoms: _374  and  _377
REMARK  167  A    between atoms: _377  and  _378
REMARK  168  A    between atoms: _381  and  _383
REMARK  169  A    between atoms: _383  and  _384
REMARK  170  A    between atoms: _383  and  _386
REMARK  171  A    between atoms: _386  and  _387
REMARK  172  A    between atoms: _387  and  _388
REMARK  173  A    between atoms: _388  and  _389
REMARK  174  A    between atoms: _389  and  ZN_411
REMARK  175  A    between atoms: _391  and  _393
REMARK  176  A    between atoms: _393  and  _394
REMARK  177  A    between atoms: _393  and  _396
REMARK  178  A    between atoms: _396  and  _397
REMARK  179  A    between atoms: _400  and  _402
REMARK  180  A    between atoms: _402  and  _403
REMARK  181  A    between atoms: _402  and  _405
REMARK  182  A    between atoms: _405  and  _406
REMARK                            x       y       z     vdW  Elec       q    Type
REMARK                         _______ _______ _______ _____ _____    ______ ____
ROOT
ATOM      1  CB  ASN A   1      44.318  41.201  58.669  0.00  0.00    +0.000 C 
ENDROOT
BRANCH   1   2
ATOM      2  CG  ASN A   1      44.270  39.846  58.000  0.00  0.00    +0.000 C 
ATOM      3  OD1 ASN A   1      44.251  38.827  58.683  0.00  0.00    +0.000 OA
ATOM      4  ND2 ASN A   1      44.212  39.818  56.672  0.00  0.00    +0.000 N 
ATOM      5 HD21 ASN A   1      44.148  38.908  56.173  0.00  0.00    +0.000 HD
ATOM      6 HD22 ASN A   1      44.231  40.707  56.132  0.00  0.00    +0.000 HD
ENDBRANCH   1   2
BRANCH   1   7
ATOM      7  CA  ASN A   1      43.274  41.304  59.800  0.00  0.00    +0.000 C 
BRANCH   7   8
ATOM      8  N   ASN A   1      41.927  41.318  59.253  0.00  0.00    +0.000 NA
ATOM      9  H   ASN A   1      41.758  41.714  58.306  0.00  0.00    +0.000 HD
ENDBRANCH   7   8
BRANCH   7  10
ATOM     10  C   ASN A   1      43.369  42.608  60.557  0.00  0.00    +0.000 C 
ATOM     11  O   ASN A   1      43.349  43.678  59.958  0.00  0.00    +0.000 OA
ENDBRANCH   7  10
ENDBRANCH   1   7
TORSDOF 4
REMARK  Name = ../refined-set-2016/2za0/2za0_pocket.pdb
REMARK  182 active torsions:
REMARK  status: ('A' for Active; 'I' for Inactive)
REMARK    1  A    between atoms: _1  and  _3
REMARK    2  A    between atoms: _3  and  _4
REMARK    3  A    between atoms: _3  and  _6
REMARK    4  A    between atoms: _6  and  _7
REMARK    5  A    between atoms: _7  and  _8
REMARK    6  A    between atoms: _8  and  _9
REMARK    7  A    between atoms: _18  and  _20
REMARK    8  A    between atoms: _20  and  _21
REMARK    9  A    between atoms: _20  and  _23
REMARK   10  A    between atoms: _23  and  _24
REMARK   11  A    between atoms: _28  and  ZN_411
REMARK   12  A    between atoms: _29  and  _31
REMARK   13  A    between atoms: _31  and  _32
REMARK   14  A    between atoms: _31  and  _34
REMARK   15  A    between atoms: _34  and  _35
REMARK   16  A    between atoms: _38  and  _40
REMARK   17  A    between atoms: _40  and  _41
REMARK   18  A    between atoms: _43  and  _45
REMARK   19  A    between atoms: _45  and  _46
REMARK   20  A    between atoms: _45  and  _48
REMARK   21  A    between atoms: _48  and  _49
REMARK   22  A    between atoms: _52  and  _54
REMARK   23  A    between atoms: _54  and  _55
REMARK   24  A    between atoms: _54  and  _57
REMARK   25  A    between atoms: _60  and  _62
REMARK   26  A    between atoms: _62  and  _63
REMARK   27  A    between atoms: _62  and  _65
REMARK   28  A    between atoms: _65  and  _66
REMARK   29  A    between atoms: _66  and  _67
REMARK   30  A    between atoms: _67  and  _68
REMARK   31  A    between atoms: _68  and  _69
REMARK   32  A    between atoms: _73  and  _75
REMARK   33  A    between atoms: _75  and  _76
REMARK   34  A    between atoms: _75  and  _78
REMARK   35  A    between atoms: _78  and  _79
REMARK   36  A    between atoms: _82  and  _84
REMARK   37  A    between atoms: _84  and  _85
REMARK   38  A    between atoms: _87  and  _89
REMARK   39  A    between atoms: _89  and  _90
REMARK   40  A    between atoms: _89  and  _92
REMARK   41  A    between atoms: _92  and  _93
REMARK   42  A    between atoms: _93  and  _94
REMARK   43  A    between atoms: _94  and  _95
REMARK   44  A    between atoms: _95  and  _96
REMARK   45  A    between atoms: _100  and  _102
REMARK   46  A    between atoms: _102  and  _103
REMARK   47  A    between atoms: _102  and  _105
REMARK   48  A    between atoms: _105  and  _106
REMARK   49  A    between atoms: _106  and  _107
REMARK   50  A    between atoms: _109  and  _111
REMARK   51  A    between atoms: _111  and  _112
REMARK   52  A    between atoms: _111  and  _114
REMARK   53  A    between atoms: _114  and  _115
REMARK   54  A    between atoms: _115  and  _116
REMARK   55  A    between atoms: _116  and  _117
REMARK   56  A    between atoms: _117  and  _118
REMARK   57  A    between atoms: _122  and  _124
REMARK   58  A    between atoms: _124  and  _125
REMARK   59  A    between atoms: _124  and  _127
REMARK   60  A    between atoms: _127  and  _128
REMARK   61  A    between atoms: _131  and  _133
REMARK   62  A    between atoms: _133  and  _134
REMARK   63  A    between atoms: _137  and  _139
REMARK   64  A    between atoms: _139  and  _140
REMARK   65  A    between atoms: _139  and  _142
REMARK   66  A    between atoms: _142  and  _143
REMARK   67  A    between atoms: _149  and  _151
REMARK   68  A    between atoms: _151  and  _152
REMARK   69  A    between atoms: _151  and  _154
REMARK   70  A    between atoms: _154  and  _155
REMARK   71  A    between atoms: _165  and  _167
REMARK   72  A    between atoms: _167  and  _168
REMARK   73  A    between atoms: _167  and  _170
REMARK   74  A    between atoms: _170  and  _171
REMARK   75  A    between atoms: _171  and  _172
REMARK   76  A    between atoms: _172  and  _173
REMARK   77  A    between atoms: _173  and  ZN_411
REMARK   78  A    between atoms: _175  and  _177
REMARK   79  A    between atoms: _177  and  _178
REMARK   80  A    between atoms: _177  and  _180
REMARK   81  A    between atoms: _180  and  _181
REMARK   82  A    between atoms: _184  and  _186
REMARK   83  A    between atoms: _186  and  _187
REMARK   84  A    between atoms: _186  and  _189
REMARK   85  A    between atoms: _189  and  _190
REMARK   86  A    between atoms: _193  and  _195
REMARK   87  A    between atoms: _195  and  _196
REMARK   88  A    between atoms: _195  and  _198
REMARK   89  A    between atoms: _198  and  _199
REMARK   90  A    between atoms: _199  and  _200
REMARK   91  A    between atoms: _200  and  _201
REMARK   92  A    between atoms: _201  and  _202
REMARK   93  A    between atoms: _206  and  _208
REMARK   94  A    between atoms: _208  and  _209
REMARK   95  A    between atoms: _208  and  _211
REMARK   96  A    between atoms: _211  and  _212
REMARK   97  A    between atoms: _215  and  _217
REMARK   98  A    between atoms: _217  and  _218
REMARK   99  A    between atoms: _221  and  _223
REMARK  100  A    between atoms: _223  and  _224
REMARK  101  A    between atoms: _223  and  _226
REMARK  102  A    between atoms: _226  and  _227
REMARK  103  A    between atoms: _230  and  _232
REMARK  104  A    between atoms: _232  and  _233
REMARK  105  A    between atoms: _232  and  _235
REMARK  106  A    between atoms: _235  and  _236
REMARK  107  A    between atoms: _236  and  _237
REMARK  108  A    between atoms: _242  and  _244
REMARK  109  A    between atoms: _244  and  _245
REMARK  110  A    between atoms: _244  and  _247
REMARK  111  A    between atoms: _247  and  _248
REMARK  112  A    between atoms: _248  and  _249
REMARK  113  A    between atoms: _249  and  _250
REMARK  114  A    between atoms: _249  and  _251
REMARK  115  A    between atoms: _250  and  ZN_411
REMARK  116  A    between atoms: _254  and  _256
REMARK  117  A    between atoms: _256  and  _257
REMARK  118  A    between atoms: _256  and  _259
REMARK  119  A    between atoms: _259  and  _260
REMARK  120  A    between atoms: _260  and  _261
REMARK  121  A    between atoms: _263  and  _265
REMARK  122  A    between atoms: _265  and  _266
REMARK  123  A    between atoms: _265  and  _268
REMARK  124  A    between atoms: _268  and  _269
REMARK  125  A    between atoms: _269  and  _270
REMARK  126  A    between atoms: _270  and  _271
REMARK  127  A    between atoms: _280  and  _282
REMARK  128  A    between atoms: _282  and  _283
REMARK  129  A    between atoms: _282  and  _285
REMARK  130  A    between atoms: _285  and  _286
REMARK  131  A    between atoms: _289  and  _291
REMARK  132  A    between atoms: _291  and  _292
REMARK  133  A    between atoms: _291  and  _294
REMARK  134  A    between atoms: _294  and  _295
REMARK  135  A    between atoms: _301  and  _303
REMARK  136  A    between atoms: _303  and  _304
REMARK  137  A    between atoms: _303  and  _306
REMARK  138  A    between atoms: _306  and  _307
REMARK  139  A    between atoms: _307  and  _308
REMARK  140  A    between atoms: _310  and  _312
REMARK  141  A    between atoms: _312  and  _313
REMARK  142  A    between atoms: _312  and  _315
REMARK  143  A    between atoms: _315  and  _316
REMARK  144  A    between atoms: _322  and  _324
REMARK  145  A    between atoms: _324  and  _325
REMARK  146  A    between atoms: _324  and  _327
REMARK  147  A    between atoms: _327  and  _328
REMARK  148  A    between atoms: _330  and  _332
REMARK  149  A    between atoms: _332  and  _333
REMARK  150  A    between atoms: _332  and  _335
REMARK  151  A    between atoms: _335  and  _336
REMARK  152  A    between atoms: _339  and  _341
REMARK  153  A    between atoms: _341  and  _342
REMARK  154  A    between atoms: _341  and  _344
REMARK  155  A    between atoms: _344  and  _345
REMARK  156  A    between atoms: _351  and  _353
REMARK  157  A    between atoms: _353  and  _354
REMARK  158  A    between atoms: _353  and  _356
REMARK  159  A    between atoms: _356  and  _357
REMARK  160  A    between atoms: _360  and  _362
REMARK  161  A    between atoms: _362  and  _363
REMARK  162  A    between atoms: _362  and  _365
REMARK  163  A    between atoms: _365  and  _366
REMARK  164  A    between atoms: _372  and  _374
REMARK  165  A    between atoms: _374  and  _375
REMARK  166  A    between atoms: _374  and  _377
REMARK  167  A    between atoms: _377  and  _378
REMARK  168  A    between atoms: _381  and  _383
REMARK  169  A    between atoms: _383  and  _384
REMARK  170  A    between atoms: _383  and  _386
REMARK  171  A    between atoms: _386  and  _387
REMARK  172  A    between atoms: _387  and  _388
REMARK  173  A    between atoms: _388  and  _389
REMARK  174  A    between atoms: _389  and  ZN_411
REMARK  175  A    between atoms: _391  and  _393
REMARK  176  A    between atoms: _393  and  _394
REMARK  177  A    between atoms: _393  and  _396
REMARK  178  A    between atoms: _396  and  _397
REMARK  179  A    between atoms: _400  and  _402
REMARK  180  A    between atoms: _402  and  _403
REMARK  181  A    between atoms: _402  and  _405
REMARK  182  A    between atoms: _405  and  _406
REMARK                            x       y       z     vdW  Elec       q    Type
REMARK                         _______ _______ _______ _____ _____    ______ ____
ROOT
ATOM      1  O   HOH     1      38.175  20.718  60.145  0.00  0.00    +0.000 OA
ENDROOT
TORSDOF 0
REMARK  Name = ../refined-set-2016/2za0/2za0_pocket.pdb
REMARK  182 active torsions:
REMARK  status: ('A' for Active; 'I' for Inactive)
REMARK    1  A    between atoms: _1  and  _3
REMARK    2  A    between atoms: _3  and  _4
REMARK    3  A    between atoms: _3  and  _6
REMARK    4  A    between atoms: _6  and  _7
REMARK    5  A    between atoms: _7  and  _8
REMARK    6  A    between atoms: _8  and  _9
REMARK    7  A    between atoms: _18  and  _20
REMARK    8  A    between atoms: _20  and  _21
REMARK    9  A    between atoms: _20  and  _23
REMARK   10  A    between atoms: _23  and  _24
REMARK   11  A    between atoms: _28  and  ZN_411
REMARK   12  A    between atoms: _29  and  _31
REMARK   13  A    between atoms: _31  and  _32
REMARK   14  A    between atoms: _31  and  _34
REMARK   15  A    between atoms: _34  and  _35
REMARK   16  A    between atoms: _38  and  _40
REMARK   17  A    between atoms: _40  and  _41
REMARK   18  A    between atoms: _43  and  _45
REMARK   19  A    between atoms: _45  and  _46
REMARK   20  A    between atoms: _45  and  _48
REMARK   21  A    between atoms: _48  and  _49
REMARK   22  A    between atoms: _52  and  _54
REMARK   23  A    between atoms: _54  and  _55
REMARK   24  A    between atoms: _54  and  _57
REMARK   25  A    between atoms: _60  and  _62
REMARK   26  A    between atoms: _62  and  _63
REMARK   27  A    between atoms: _62  and  _65
REMARK   28  A    between atoms: _65  and  _66
REMARK   29  A    between atoms: _66  and  _67
REMARK   30  A    between atoms: _67  and  _68
REMARK   31  A    between atoms: _68  and  _69
REMARK   32  A    between atoms: _73  and  _75
REMARK   33  A    between atoms: _75  and  _76
REMARK   34  A    between atoms: _75  and  _78
REMARK   35  A    between atoms: _78  and  _79
REMARK   36  A    between atoms: _82  and  _84
REMARK   37  A    between atoms: _84  and  _85
REMARK   38  A    between atoms: _87  and  _89
REMARK   39  A    between atoms: _89  and  _90
REMARK   40  A    between atoms: _89  and  _92
REMARK   41  A    between atoms: _92  and  _93
REMARK   42  A    between atoms: _93  and  _94
REMARK   43  A    between atoms: _94  and  _95
REMARK   44  A    between atoms: _95  and  _96
REMARK   45  A    between atoms: _100  and  _102
REMARK   46  A    between atoms: _102  and  _103
REMARK   47  A    between atoms: _102  and  _105
REMARK   48  A    between atoms: _105  and  _106
REMARK   49  A    between atoms: _106  and  _107
REMARK   50  A    between atoms: _109  and  _111
REMARK   51  A    between atoms: _111  and  _112
REMARK   52  A    between atoms: _111  and  _114
REMARK   53  A    between atoms: _114  and  _115
REMARK   54  A    between atoms: _115  and  _116
REMARK   55  A    between atoms: _116  and  _117
REMARK   56  A    between atoms: _117  and  _118
REMARK   57  A    between atoms: _122  and  _124
REMARK   58  A    between atoms: _124  and  _125
REMARK   59  A    between atoms: _124  and  _127
REMARK   60  A    between atoms: _127  and  _128
REMARK   61  A    between atoms: _131  and  _133
REMARK   62  A    between atoms: _133  and  _134
REMARK   63  A    between atoms: _137  and  _139
REMARK   64  A    between atoms: _139  and  _140
REMARK   65  A    between atoms: _139  and  _142
REMARK   66  A    between atoms: _142  and  _143
REMARK   67  A    between atoms: _149  and  _151
REMARK   68  A    between atoms: _151  and  _152
REMARK   69  A    between atoms: _151  and  _154
REMARK   70  A    between atoms: _154  and  _155
REMARK   71  A    between atoms: _165  and  _167
REMARK   72  A    between atoms: _167  and  _168
REMARK   73  A    between atoms: _167  and  _170
REMARK   74  A    between atoms: _170  and  _171
REMARK   75  A    between atoms: _171  and  _172
REMARK   76  A    between atoms: _172  and  _173
REMARK   77  A    between atoms: _173  and  ZN_411
REMARK   78  A    between atoms: _175  and  _177
REMARK   79  A    between atoms: _177  and  _178
REMARK   80  A    between atoms: _177  and  _180
REMARK   81  A    between atoms: _180  and  _181
REMARK   82  A    between atoms: _184  and  _186
REMARK   83  A    between atoms: _186  and  _187
REMARK   84  A    between atoms: _186  and  _189
REMARK   85  A    between atoms: _189  and  _190
REMARK   86  A    between atoms: _193  and  _195
REMARK   87  A    between atoms: _195  and  _196
REMARK   88  A    between atoms: _195  and  _198
REMARK   89  A    between atoms: _198  and  _199
REMARK   90  A    between atoms: _199  and  _200
REMARK   91  A    between atoms: _200  and  _201
REMARK   92  A    between atoms: _201  and  _202
REMARK   93  A    between atoms: _206  and  _208
REMARK   94  A    between atoms: _208  and  _209
REMARK   95  A    between atoms: _208  and  _211
REMARK   96  A    between atoms: _211  and  _212
REMARK   97  A    between atoms: _215  and  _217
REMARK   98  A    between atoms: _217  and  _218
REMARK   99  A    between atoms: _221  and  _223
REMARK  100  A    between atoms: _223  and  _224
REMARK  101  A    between atoms: _223  and  _226
REMARK  102  A    between atoms: _226  and  _227
REMARK  103  A    between atoms: _230  and  _232
REMARK  104  A    between atoms: _232  and  _233
REMARK  105  A    between atoms: _232  and  _235
REMARK  106  A    between atoms: _235  and  _236
REMARK  107  A    between atoms: _236  and  _237
REMARK  108  A    between atoms: _242  and  _244
REMARK  109  A    between atoms: _244  and  _245
REMARK  110  A    between atoms: _244  and  _247
REMARK  111  A    between atoms: _247  and  _248
REMARK  112  A    between atoms: _248  and  _249
REMARK  113  A    between atoms: _249  and  _250
REMARK  114  A    between atoms: _249  and  _251
REMARK  115  A    between atoms: _250  and  ZN_411
REMARK  116  A    between atoms: _254  and  _256
REMARK  117  A    between atoms: _256  and  _257
REMARK  118  A    between atoms: _256  and  _259
REMARK  119  A    between atoms: _259  and  _260
REMARK  120  A    between atoms: _260  and  _261
REMARK  121  A    between atoms: _263  and  _265
REMARK  122  A    between atoms: _265  and  _266
REMARK  123  A    between atoms: _265  and  _268
REMARK  124  A    between atoms: _268  and  _269
REMARK  125  A    between atoms: _269  and  _270
REMARK  126  A    between atoms: _270  and  _271
REMARK  127  A    between atoms: _280  and  _282
REMARK  128  A    between atoms: _282  and  _283
REMARK  129  A    between atoms: _282  and  _285
REMARK  130  A    between atoms: _285  and  _286
REMARK  131  A    between atoms: _289  and  _291
REMARK  132  A    between atoms: _291  and  _292
REMARK  133  A    between atoms: _291  and  _294
REMARK  134  A    between atoms: _294  and  _295
REMARK  135  A    between atoms: _301  and  _303
REMARK  136  A    between atoms: _303  and  _304
REMARK  137  A    between atoms: _303  and  _306
REMARK  138  A    between atoms: _306  and  _307
REMARK  139  A    between atoms: _307  and  _308
REMARK  140  A    between atoms: _310  and  _312
REMARK  141  A    between atoms: _312  and  _313
REMARK  142  A    between atoms: _312  and  _315
REMARK  143  A    between atoms: _315  and  _316
REMARK  144  A    between atoms: _322  and  _324
REMARK  145  A    between atoms: _324  and  _325
REMARK  146  A    between atoms: _324  and  _327
REMARK  147  A    between atoms: _327  and  _328
REMARK  148  A    between atoms: _330  and  _332
REMARK  149  A    between atoms: _332  and  _333
REMARK  150  A    between atoms: _332  and  _335
REMARK  151  A    between atoms: _335  and  _336
REMARK  152  A    between atoms: _339  and  _341
REMARK  153  A    between atoms: _341  and  _342
REMARK  154  A    between atoms: _341  and  _344
REMARK  155  A    between atoms: _344  and  _345
REMARK  156  A    between atoms: _351  and  _353
REMARK  157  A    between atoms: _353  and  _354
REMARK  158  A    between atoms: _353  and  _356
REMARK  159  A    between atoms: _356  and  _357
REMARK  160  A    between atoms: _360  and  _362
REMARK  161  A    between atoms: _362  and  _363
REMARK  162  A    between atoms: _362  and  _365
REMARK  163  A    between atoms: _365  and  _366
REMARK  164  A    between atoms: _372  and  _374
REMARK  165  A    between atoms: _374  and  _375
REMARK  166  A    between atoms: _374  and  _377
REMARK  167  A    between atoms: _377  and  _378
REMARK  168  A    between atoms: _381  and  _383
REMARK  169  A    between atoms: _383  and  _384
REMARK  170  A    between atoms: _383  and  _386
REMARK  171  A    between atoms: _386  and  _387
REMARK  172  A    between atoms: _387  and  _388
REMARK  173  A    between atoms: _388  and  _389
REMARK  174  A    between atoms: _389  and  ZN_411
REMARK  175  A    between atoms: _391  and  _393
REMARK  176  A    between atoms: _393  and  _394
REMARK  177  A    between atoms: _393  and  _396
REMARK  178  A    between atoms: _396  and  _397
REMARK  179  A    between atoms: _400  and  _402
REMARK  180  A    between atoms: _402  and  _403
REMARK  181  A    between atoms: _402  and  _405
REMARK  182  A    between atoms: _405  and  _406
REMARK                            x       y       z     vdW  Elec       q    Type
REMARK                         _______ _______ _______ _____ _____    ______ ____
ROOT
ATOM      1  O   HOH     1      42.785  32.378  51.947  0.00  0.00    +0.000 OA
ENDROOT
TORSDOF 0
REMARK  Name = ../refined-set-2016/2za0/2za0_pocket.pdb
REMARK  182 active torsions:
REMARK  status: ('A' for Active; 'I' for Inactive)
REMARK    1  A    between atoms: _1  and  _3
REMARK    2  A    between atoms: _3  and  _4
REMARK    3  A    between atoms: _3  and  _6
REMARK    4  A    between atoms: _6  and  _7
REMARK    5  A    between atoms: _7  and  _8
REMARK    6  A    between atoms: _8  and  _9
REMARK    7  A    between atoms: _18  and  _20
REMARK    8  A    between atoms: _20  and  _21
REMARK    9  A    between atoms: _20  and  _23
REMARK   10  A    between atoms: _23  and  _24
REMARK   11  A    between atoms: _28  and  ZN_411
REMARK   12  A    between atoms: _29  and  _31
REMARK   13  A    between atoms: _31  and  _32
REMARK   14  A    between atoms: _31  and  _34
REMARK   15  A    between atoms: _34  and  _35
REMARK   16  A    between atoms: _38  and  _40
REMARK   17  A    between atoms: _40  and  _41
REMARK   18  A    between atoms: _43  and  _45
REMARK   19  A    between atoms: _45  and  _46
REMARK   20  A    between atoms: _45  and  _48
REMARK   21  A    between atoms: _48  and  _49
REMARK   22  A    between atoms: _52  and  _54
REMARK   23  A    between atoms: _54  and  _55
REMARK   24  A    between atoms: _54  and  _57
REMARK   25  A    between atoms: _60  and  _62
REMARK   26  A    between atoms: _62  and  _63
REMARK   27  A    between atoms: _62  and  _65
REMARK   28  A    between atoms: _65  and  _66
REMARK   29  A    between atoms: _66  and  _67
REMARK   30  A    between atoms: _67  and  _68
REMARK   31  A    between atoms: _68  and  _69
REMARK   32  A    between atoms: _73  and  _75
REMARK   33  A    between atoms: _75  and  _76
REMARK   34  A    between atoms: _75  and  _78
REMARK   35  A    between atoms: _78  and  _79
REMARK   36  A    between atoms: _82  and  _84
REMARK   37  A    between atoms: _84  and  _85
REMARK   38  A    between atoms: _87  and  _89
REMARK   39  A    between atoms: _89  and  _90
REMARK   40  A    between atoms: _89  and  _92
REMARK   41  A    between atoms: _92  and  _93
REMARK   42  A    between atoms: _93  and  _94
REMARK   43  A    between atoms: _94  and  _95
REMARK   44  A    between atoms: _95  and  _96
REMARK   45  A    between atoms: _100  and  _102
REMARK   46  A    between atoms: _102  and  _103
REMARK   47  A    between atoms: _102  and  _105
REMARK   48  A    between atoms: _105  and  _106
REMARK   49  A    between atoms: _106  and  _107
REMARK   50  A    between atoms: _109  and  _111
REMARK   51  A    between atoms: _111  and  _112
REMARK   52  A    between atoms: _111  and  _114
REMARK   53  A    between atoms: _114  and  _115
REMARK   54  A    between atoms: _115  and  _116
REMARK   55  A    between atoms: _116  and  _117
REMARK   56  A    between atoms: _117  and  _118
REMARK   57  A    between atoms: _122  and  _124
REMARK   58  A    between atoms: _124  and  _125
REMARK   59  A    between atoms: _124  and  _127
REMARK   60  A    between atoms: _127  and  _128
REMARK   61  A    between atoms: _131  and  _133
REMARK   62  A    between atoms: _133  and  _134
REMARK   63  A    between atoms: _137  and  _139
REMARK   64  A    between atoms: _139  and  _140
REMARK   65  A    between atoms: _139  and  _142
REMARK   66  A    between atoms: _142  and  _143
REMARK   67  A    between atoms: _149  and  _151
REMARK   68  A    between atoms: _151  and  _152
REMARK   69  A    between atoms: _151  and  _154
REMARK   70  A    between atoms: _154  and  _155
REMARK   71  A    between atoms: _165  and  _167
REMARK   72  A    between atoms: _167  and  _168
REMARK   73  A    between atoms: _167  and  _170
REMARK   74  A    between atoms: _170  and  _171
REMARK   75  A    between atoms: _171  and  _172
REMARK   76  A    between atoms: _172  and  _173
REMARK   77  A    between atoms: _173  and  ZN_411
REMARK   78  A    between atoms: _175  and  _177
REMARK   79  A    between atoms: _177  and  _178
REMARK   80  A    between atoms: _177  and  _180
REMARK   81  A    between atoms: _180  and  _181
REMARK   82  A    between atoms: _184  and  _186
REMARK   83  A    between atoms: _186  and  _187
REMARK   84  A    between atoms: _186  and  _189
REMARK   85  A    between atoms: _189  and  _190
REMARK   86  A    between atoms: _193  and  _195
REMARK   87  A    between atoms: _195  and  _196
REMARK   88  A    between atoms: _195  and  _198
REMARK   89  A    between atoms: _198  and  _199
REMARK   90  A    between atoms: _199  and  _200
REMARK   91  A    between atoms: _200  and  _201
REMARK   92  A    between atoms: _201  and  _202
REMARK   93  A    between atoms: _206  and  _208
REMARK   94  A    between atoms: _208  and  _209
REMARK   95  A    between atoms: _208  and  _211
REMARK   96  A    between atoms: _211  and  _212
REMARK   97  A    between atoms: _215  and  _217
REMARK   98  A    between atoms: _217  and  _218
REMARK   99  A    between atoms: _221  and  _223
REMARK  100  A    between atoms: _223  and  _224
REMARK  101  A    between atoms: _223  and  _226
REMARK  102  A    between atoms: _226  and  _227
REMARK  103  A    between atoms: _230  and  _232
REMARK  104  A    between atoms: _232  and  _233
REMARK  105  A    between atoms: _232  and  _235
REMARK  106  A    between atoms: _235  and  _236
REMARK  107  A    between atoms: _236  and  _237
REMARK  108  A    between atoms: _242  and  _244
REMARK  109  A    between atoms: _244  and  _245
REMARK  110  A    between atoms: _244  and  _247
REMARK  111  A    between atoms: _247  and  _248
REMARK  112  A    between atoms: _248  and  _249
REMARK  113  A    between atoms: _249  and  _250
REMARK  114  A    between atoms: _249  and  _251
REMARK  115  A    between atoms: _250  and  ZN_411
REMARK  116  A    between atoms: _254  and  _256
REMARK  117  A    between atoms: _256  and  _257
REMARK  118  A    between atoms: _256  and  _259
REMARK  119  A    between atoms: _259  and  _260
REMARK  120  A    between atoms: _260  and  _261
REMARK  121  A    between atoms: _263  and  _265
REMARK  122  A    between atoms: _265  and  _266
REMARK  123  A    between atoms: _265  and  _268
REMARK  124  A    between atoms: _268  and  _269
REMARK  125  A    between atoms: _269  and  _270
REMARK  126  A    between atoms: _270  and  _271
REMARK  127  A    between atoms: _280  and  _282
REMARK  128  A    between atoms: _282  and  _283
REMARK  129  A    between atoms: _282  and  _285
REMARK  130  A    between atoms: _285  and  _286
REMARK  131  A    between atoms: _289  and  _291
REMARK  132  A    between atoms: _291  and  _292
REMARK  133  A    between atoms: _291  and  _294
REMARK  134  A    between atoms: _294  and  _295
REMARK  135  A    between atoms: _301  and  _303
REMARK  136  A    between atoms: _303  and  _304
REMARK  137  A    between atoms: _303  and  _306
REMARK  138  A    between atoms: _306  and  _307
REMARK  139  A    between atoms: _307  and  _308
REMARK  140  A    between atoms: _310  and  _312
REMARK  141  A    between atoms: _312  and  _313
REMARK  142  A    between atoms: _312  and  _315
REMARK  143  A    between atoms: _315  and  _316
REMARK  144  A    between atoms: _322  and  _324
REMARK  145  A    between atoms: _324  and  _325
REMARK  146  A    between atoms: _324  and  _327
REMARK  147  A    between atoms: _327  and  _328
REMARK  148  A    between atoms: _330  and  _332
REMARK  149  A    between atoms: _332  and  _333
REMARK  150  A    between atoms: _332  and  _335
REMARK  151  A    between atoms: _335  and  _336
REMARK  152  A    between atoms: _339  and  _341
REMARK  153  A    between atoms: _341  and  _342
REMARK  154  A    between atoms: _341  and  _344
REMARK  155  A    between atoms: _344  and  _345
REMARK  156  A    between atoms: _351  and  _353
REMARK  157  A    between atoms: _353  and  _354
REMARK  158  A    between atoms: _353  and  _356
REMARK  159  A    between atoms: _356  and  _357
REMARK  160  A    between atoms: _360  and  _362
REMARK  161  A    between atoms: _362  and  _363
REMARK  162  A    between atoms: _362  and  _365
REMARK  163  A    between atoms: _365  and  _366
REMARK  164  A    between atoms: _372  and  _374
REMARK  165  A    between atoms: _374  and  _375
REMARK  166  A    between atoms: _374  and  _377
REMARK  167  A    between atoms: _377  and  _378
REMARK  168  A    between atoms: _381  and  _383
REMARK  169  A    between atoms: _383  and  _384
REMARK  170  A    between atoms: _383  and  _386
REMARK  171  A    between atoms: _386  and  _387
REMARK  172  A    between atoms: _387  and  _388
REMARK  173  A    between atoms: _388  and  _389
REMARK  174  A    between atoms: _389  and  ZN_411
REMARK  175  A    between atoms: _391  and  _393
REMARK  176  A    between atoms: _393  and  _394
REMARK  177  A    between atoms: _393  and  _396
REMARK  178  A    between atoms: _396  and  _397
REMARK  179  A    between atoms: _400  and  _402
REMARK  180  A    between atoms: _402  and  _403
REMARK  181  A    between atoms: _402  and  _405
REMARK  182  A    between atoms: _405  and  _406
REMARK                            x       y       z     vdW  Elec       q    Type
REMARK                         _______ _______ _______ _____ _____    ______ ____
ROOT
ATOM      1  O   HOH     1      47.153  26.496  65.139  0.00  0.00    +0.000 OA
ENDROOT
TORSDOF 0
REMARK  Name = ../refined-set-2016/2za0/2za0_pocket.pdb
REMARK  182 active torsions:
REMARK  status: ('A' for Active; 'I' for Inactive)
REMARK    1  A    between atoms: _1  and  _3
REMARK    2  A    between atoms: _3  and  _4
REMARK    3  A    between atoms: _3  and  _6
REMARK    4  A    between atoms: _6  and  _7
REMARK    5  A    between atoms: _7  and  _8
REMARK    6  A    between atoms: _8  and  _9
REMARK    7  A    between atoms: _18  and  _20
REMARK    8  A    between atoms: _20  and  _21
REMARK    9  A    between atoms: _20  and  _23
REMARK   10  A    between atoms: _23  and  _24
REMARK   11  A    between atoms: _28  and  ZN_411
REMARK   12  A    between atoms: _29  and  _31
REMARK   13  A    between atoms: _31  and  _32
REMARK   14  A    between atoms: _31  and  _34
REMARK   15  A    between atoms: _34  and  _35
REMARK   16  A    between atoms: _38  and  _40
REMARK   17  A    between atoms: _40  and  _41
REMARK   18  A    between atoms: _43  and  _45
REMARK   19  A    between atoms: _45  and  _46
REMARK   20  A    between atoms: _45  and  _48
REMARK   21  A    between atoms: _48  and  _49
REMARK   22  A    between atoms: _52  and  _54
REMARK   23  A    between atoms: _54  and  _55
REMARK   24  A    between atoms: _54  and  _57
REMARK   25  A    between atoms: _60  and  _62
REMARK   26  A    between atoms: _62  and  _63
REMARK   27  A    between atoms: _62  and  _65
REMARK   28  A    between atoms: _65  and  _66
REMARK   29  A    between atoms: _66  and  _67
REMARK   30  A    between atoms: _67  and  _68
REMARK   31  A    between atoms: _68  and  _69
REMARK   32  A    between atoms: _73  and  _75
REMARK   33  A    between atoms: _75  and  _76
REMARK   34  A    between atoms: _75  and  _78
REMARK   35  A    between atoms: _78  and  _79
REMARK   36  A    between atoms: _82  and  _84
REMARK   37  A    between atoms: _84  and  _85
REMARK   38  A    between atoms: _87  and  _89
REMARK   39  A    between atoms: _89  and  _90
REMARK   40  A    between atoms: _89  and  _92
REMARK   41  A    between atoms: _92  and  _93
REMARK   42  A    between atoms: _93  and  _94
REMARK   43  A    between atoms: _94  and  _95
REMARK   44  A    between atoms: _95  and  _96
REMARK   45  A    between atoms: _100  and  _102
REMARK   46  A    between atoms: _102  and  _103
REMARK   47  A    between atoms: _102  and  _105
REMARK   48  A    between atoms: _105  and  _106
REMARK   49  A    between atoms: _106  and  _107
REMARK   50  A    between atoms: _109  and  _111
REMARK   51  A    between atoms: _111  and  _112
REMARK   52  A    between atoms: _111  and  _114
REMARK   53  A    between atoms: _114  and  _115
REMARK   54  A    between atoms: _115  and  _116
REMARK   55  A    between atoms: _116  and  _117
REMARK   56  A    between atoms: _117  and  _118
REMARK   57  A    between atoms: _122  and  _124
REMARK   58  A    between atoms: _124  and  _125
REMARK   59  A    between atoms: _124  and  _127
REMARK   60  A    between atoms: _127  and  _128
REMARK   61  A    between atoms: _131  and  _133
REMARK   62  A    between atoms: _133  and  _134
REMARK   63  A    between atoms: _137  and  _139
REMARK   64  A    between atoms: _139  and  _140
REMARK   65  A    between atoms: _139  and  _142
REMARK   66  A    between atoms: _142  and  _143
REMARK   67  A    between atoms: _149  and  _151
REMARK   68  A    between atoms: _151  and  _152
REMARK   69  A    between atoms: _151  and  _154
REMARK   70  A    between atoms: _154  and  _155
REMARK   71  A    between atoms: _165  and  _167
REMARK   72  A    between atoms: _167  and  _168
REMARK   73  A    between atoms: _167  and  _170
REMARK   74  A    between atoms: _170  and  _171
REMARK   75  A    between atoms: _171  and  _172
REMARK   76  A    between atoms: _172  and  _173
REMARK   77  A    between atoms: _173  and  ZN_411
REMARK   78  A    between atoms: _175  and  _177
REMARK   79  A    between atoms: _177  and  _178
REMARK   80  A    between atoms: _177  and  _180
REMARK   81  A    between atoms: _180  and  _181
REMARK   82  A    between atoms: _184  and  _186
REMARK   83  A    between atoms: _186  and  _187
REMARK   84  A    between atoms: _186  and  _189
REMARK   85  A    between atoms: _189  and  _190
REMARK   86  A    between atoms: _193  and  _195
REMARK   87  A    between atoms: _195  and  _196
REMARK   88  A    between atoms: _195  and  _198
REMARK   89  A    between atoms: _198  and  _199
REMARK   90  A    between atoms: _199  and  _200
REMARK   91  A    between atoms: _200  and  _201
REMARK   92  A    between atoms: _201  and  _202
REMARK   93  A    between atoms: _206  and  _208
REMARK   94  A    between atoms: _208  and  _209
REMARK   95  A    between atoms: _208  and  _211
REMARK   96  A    between atoms: _211  and  _212
REMARK   97  A    between atoms: _215  and  _217
REMARK   98  A    between atoms: _217  and  _218
REMARK   99  A    between atoms: _221  and  _223
REMARK  100  A    between atoms: _223  and  _224
REMARK  101  A    between atoms: _223  and  _226
REMARK  102  A    between atoms: _226  and  _227
REMARK  103  A    between atoms: _230  and  _232
REMARK  104  A    between atoms: _232  and  _233
REMARK  105  A    between atoms: _232  and  _235
REMARK  106  A    between atoms: _235  and  _236
REMARK  107  A    between atoms: _236  and  _237
REMARK  108  A    between atoms: _242  and  _244
REMARK  109  A    between atoms: _244  and  _245
REMARK  110  A    between atoms: _244  and  _247
REMARK  111  A    between atoms: _247  and  _248
REMARK  112  A    between atoms: _248  and  _249
REMARK  113  A    between atoms: _249  and  _250
REMARK  114  A    between atoms: _249  and  _251
REMARK  115  A    between atoms: _250  and  ZN_411
REMARK  116  A    between atoms: _254  and  _256
REMARK  117  A    between atoms: _256  and  _257
REMARK  118  A    between atoms: _256  and  _259
REMARK  119  A    between atoms: _259  and  _260
REMARK  120  A    between atoms: _260  and  _261
REMARK  121  A    between atoms: _263  and  _265
REMARK  122  A    between atoms: _265  and  _266
REMARK  123  A    between atoms: _265  and  _268
REMARK  124  A    between atoms: _268  and  _269
REMARK  125  A    between atoms: _269  and  _270
REMARK  126  A    between atoms: _270  and  _271
REMARK  127  A    between atoms: _280  and  _282
REMARK  128  A    between atoms: _282  and  _283
REMARK  129  A    between atoms: _282  and  _285
REMARK  130  A    between atoms: _285  and  _286
REMARK  131  A    between atoms: _289  and  _291
REMARK  132  A    between atoms: _291  and  _292
REMARK  133  A    between atoms: _291  and  _294
REMARK  134  A    between atoms: _294  and  _295
REMARK  135  A    between atoms: _301  and  _303
REMARK  136  A    between atoms: _303  and  _304
REMARK  137  A    between atoms: _303  and  _306
REMARK  138  A    between atoms: _306  and  _307
REMARK  139  A    between atoms: _307  and  _308
REMARK  140  A    between atoms: _310  and  _312
REMARK  141  A    between atoms: _312  and  _313
REMARK  142  A    between atoms: _312  and  _315
REMARK  143  A    between atoms: _315  and  _316
REMARK  144  A    between atoms: _322  and  _324
REMARK  145  A    between atoms: _324  and  _325
REMARK  146  A    between atoms: _324  and  _327
REMARK  147  A    between atoms: _327  and  _328
REMARK  148  A    between atoms: _330  and  _332
REMARK  149  A    between atoms: _332  and  _333
REMARK  150  A    between atoms: _332  and  _335
REMARK  151  A    between atoms: _335  and  _336
REMARK  152  A    between atoms: _339  and  _341
REMARK  153  A    between atoms: _341  and  _342
REMARK  154  A    between atoms: _341  and  _344
REMARK  155  A    between atoms: _344  and  _345
REMARK  156  A    between atoms: _351  and  _353
REMARK  157  A    between atoms: _353  and  _354
REMARK  158  A    between atoms: _353  and  _356
REMARK  159  A    between atoms: _356  and  _357
REMARK  160  A    between atoms: _360  and  _362
REMARK  161  A    between atoms: _362  and  _363
REMARK  162  A    between atoms: _362  and  _365
REMARK  163  A    between atoms: _365  and  _366
REMARK  164  A    between atoms: _372  and  _374
REMARK  165  A    between atoms: _374  and  _375
REMARK  166  A    between atoms: _374  and  _377
REMARK  167  A    between atoms: _377  and  _378
REMARK  168  A    between atoms: _381  and  _383
REMARK  169  A    between atoms: _383  and  _384
REMARK  170  A    between atoms: _383  and  _386
REMARK  171  A    between atoms: _386  and  _387
REMARK  172  A    between atoms: _387  and  _388
REMARK  173  A    between atoms: _388  and  _389
REMARK  174  A    between atoms: _389  and  ZN_411
REMARK  175  A    between atoms: _391  and  _393
REMARK  176  A    between atoms: _393  and  _394
REMARK  177  A    between atoms: _393  and  _396
REMARK  178  A    between atoms: _396  and  _397
REMARK  179  A    between atoms: _400  and  _402
REMARK  180  A    between atoms: _402  and  _403
REMARK  181  A    between atoms: _402  and  _405
REMARK  182  A    between atoms: _405  and  _406
REMARK                            x       y       z     vdW  Elec       q    Type
REMARK                         _______ _______ _______ _____ _____    ______ ____
ROOT
ATOM      1  O   HOH     1      49.718  26.596  58.695  0.00  0.00    +0.000 OA
ENDROOT
TORSDOF 0
REMARK  Name = ../refined-set-2016/2za0/2za0_pocket.pdb
REMARK  182 active torsions:
REMARK  status: ('A' for Active; 'I' for Inactive)
REMARK    1  A    between atoms: _1  and  _3
REMARK    2  A    between atoms: _3  and  _4
REMARK    3  A    between atoms: _3  and  _6
REMARK    4  A    between atoms: _6  and  _7
REMARK    5  A    between atoms: _7  and  _8
REMARK    6  A    between atoms: _8  and  _9
REMARK    7  A    between atoms: _18  and  _20
REMARK    8  A    between atoms: _20  and  _21
REMARK    9  A    between atoms: _20  and  _23
REMARK   10  A    between atoms: _23  and  _24
REMARK   11  A    between atoms: _28  and  ZN_411
REMARK   12  A    between atoms: _29  and  _31
REMARK   13  A    between atoms: _31  and  _32
REMARK   14  A    between atoms: _31  and  _34
REMARK   15  A    between atoms: _34  and  _35
REMARK   16  A    between atoms: _38  and  _40
REMARK   17  A    between atoms: _40  and  _41
REMARK   18  A    between atoms: _43  and  _45
REMARK   19  A    between atoms: _45  and  _46
REMARK   20  A    between atoms: _45  and  _48
REMARK   21  A    between atoms: _48  and  _49
REMARK   22  A    between atoms: _52  and  _54
REMARK   23  A    between atoms: _54  and  _55
REMARK   24  A    between atoms: _54  and  _57
REMARK   25  A    between atoms: _60  and  _62
REMARK   26  A    between atoms: _62  and  _63
REMARK   27  A    between atoms: _62  and  _65
REMARK   28  A    between atoms: _65  and  _66
REMARK   29  A    between atoms: _66  and  _67
REMARK   30  A    between atoms: _67  and  _68
REMARK   31  A    between atoms: _68  and  _69
REMARK   32  A    between atoms: _73  and  _75
REMARK   33  A    between atoms: _75  and  _76
REMARK   34  A    between atoms: _75  and  _78
REMARK   35  A    between atoms: _78  and  _79
REMARK   36  A    between atoms: _82  and  _84
REMARK   37  A    between atoms: _84  and  _85
REMARK   38  A    between atoms: _87  and  _89
REMARK   39  A    between atoms: _89  and  _90
REMARK   40  A    between atoms: _89  and  _92
REMARK   41  A    between atoms: _92  and  _93
REMARK   42  A    between atoms: _93  and  _94
REMARK   43  A    between atoms: _94  and  _95
REMARK   44  A    between atoms: _95  and  _96
REMARK   45  A    between atoms: _100  and  _102
REMARK   46  A    between atoms: _102  and  _103
REMARK   47  A    between atoms: _102  and  _105
REMARK   48  A    between atoms: _105  and  _106
REMARK   49  A    between atoms: _106  and  _107
REMARK   50  A    between atoms: _109  and  _111
REMARK   51  A    between atoms: _111  and  _112
REMARK   52  A    between atoms: _111  and  _114
REMARK   53  A    between atoms: _114  and  _115
REMARK   54  A    between atoms: _115  and  _116
REMARK   55  A    between atoms: _116  and  _117
REMARK   56  A    between atoms: _117  and  _118
REMARK   57  A    between atoms: _122  and  _124
REMARK   58  A    between atoms: _124  and  _125
REMARK   59  A    between atoms: _124  and  _127
REMARK   60  A    between atoms: _127  and  _128
REMARK   61  A    between atoms: _131  and  _133
REMARK   62  A    between atoms: _133  and  _134
REMARK   63  A    between atoms: _137  and  _139
REMARK   64  A    between atoms: _139  and  _140
REMARK   65  A    between atoms: _139  and  _142
REMARK   66  A    between atoms: _142  and  _143
REMARK   67  A    between atoms: _149  and  _151
REMARK   68  A    between atoms: _151  and  _152
REMARK   69  A    between atoms: _151  and  _154
REMARK   70  A    between atoms: _154  and  _155
REMARK   71  A    between atoms: _165  and  _167
REMARK   72  A    between atoms: _167  and  _168
REMARK   73  A    between atoms: _167  and  _170
REMARK   74  A    between atoms: _170  and  _171
REMARK   75  A    between atoms: _171  and  _172
REMARK   76  A    between atoms: _172  and  _173
REMARK   77  A    between atoms: _173  and  ZN_411
REMARK   78  A    between atoms: _175  and  _177
REMARK   79  A    between atoms: _177  and  _178
REMARK   80  A    between atoms: _177  and  _180
REMARK   81  A    between atoms: _180  and  _181
REMARK   82  A    between atoms: _184  and  _186
REMARK   83  A    between atoms: _186  and  _187
REMARK   84  A    between atoms: _186  and  _189
REMARK   85  A    between atoms: _189  and  _190
REMARK   86  A    between atoms: _193  and  _195
REMARK   87  A    between atoms: _195  and  _196
REMARK   88  A    between atoms: _195  and  _198
REMARK   89  A    between atoms: _198  and  _199
REMARK   90  A    between atoms: _199  and  _200
REMARK   91  A    between atoms: _200  and  _201
REMARK   92  A    between atoms: _201  and  _202
REMARK   93  A    between atoms: _206  and  _208
REMARK   94  A    between atoms: _208  and  _209
REMARK   95  A    between atoms: _208  and  _211
REMARK   96  A    between atoms: _211  and  _212
REMARK   97  A    between atoms: _215  and  _217
REMARK   98  A    between atoms: _217  and  _218
REMARK   99  A    between atoms: _221  and  _223
REMARK  100  A    between atoms: _223  and  _224
REMARK  101  A    between atoms: _223  and  _226
REMARK  102  A    between atoms: _226  and  _227
REMARK  103  A    between atoms: _230  and  _232
REMARK  104  A    between atoms: _232  and  _233
REMARK  105  A    between atoms: _232  and  _235
REMARK  106  A    between atoms: _235  and  _236
REMARK  107  A    between atoms: _236  and  _237
REMARK  108  A    between atoms: _242  and  _244
REMARK  109  A    between atoms: _244  and  _245
REMARK  110  A    between atoms: _244  and  _247
REMARK  111  A    between atoms: _247  and  _248
REMARK  112  A    between atoms: _248  and  _249
REMARK  113  A    between atoms: _249  and  _250
REMARK  114  A    between atoms: _249  and  _251
REMARK  115  A    between atoms: _250  and  ZN_411
REMARK  116  A    between atoms: _254  and  _256
REMARK  117  A    between atoms: _256  and  _257
REMARK  118  A    between atoms: _256  and  _259
REMARK  119  A    between atoms: _259  and  _260
REMARK  120  A    between atoms: _260  and  _261
REMARK  121  A    between atoms: _263  and  _265
REMARK  122  A    between atoms: _265  and  _266
REMARK  123  A    between atoms: _265  and  _268
REMARK  124  A    between atoms: _268  and  _269
REMARK  125  A    between atoms: _269  and  _270
REMARK  126  A    between atoms: _270  and  _271
REMARK  127  A    between atoms: _280  and  _282
REMARK  128  A    between atoms: _282  and  _283
REMARK  129  A    between atoms: _282  and  _285
REMARK  130  A    between atoms: _285  and  _286
REMARK  131  A    between atoms: _289  and  _291
REMARK  132  A    between atoms: _291  and  _292
REMARK  133  A    between atoms: _291  and  _294
REMARK  134  A    between atoms: _294  and  _295
REMARK  135  A    between atoms: _301  and  _303
REMARK  136  A    between atoms: _303  and  _304
REMARK  137  A    between atoms: _303  and  _306
REMARK  138  A    between atoms: _306  and  _307
REMARK  139  A    between atoms: _307  and  _308
REMARK  140  A    between atoms: _310  and  _312
REMARK  141  A    between atoms: _312  and  _313
REMARK  142  A    between atoms: _312  and  _315
REMARK  143  A    between atoms: _315  and  _316
REMARK  144  A    between atoms: _322  and  _324
REMARK  145  A    between atoms: _324  and  _325
REMARK  146  A    between atoms: _324  and  _327
REMARK  147  A    between atoms: _327  and  _328
REMARK  148  A    between atoms: _330  and  _332
REMARK  149  A    between atoms: _332  and  _333
REMARK  150  A    between atoms: _332  and  _335
REMARK  151  A    between atoms: _335  and  _336
REMARK  152  A    between atoms: _339  and  _341
REMARK  153  A    between atoms: _341  and  _342
REMARK  154  A    between atoms: _341  and  _344
REMARK  155  A    between atoms: _344  and  _345
REMARK  156  A    between atoms: _351  and  _353
REMARK  157  A    between atoms: _353  and  _354
REMARK  158  A    between atoms: _353  and  _356
REMARK  159  A    between atoms: _356  and  _357
REMARK  160  A    between atoms: _360  and  _362
REMARK  161  A    between atoms: _362  and  _363
REMARK  162  A    between atoms: _362  and  _365
REMARK  163  A    between atoms: _365  and  _366
REMARK  164  A    between atoms: _372  and  _374
REMARK  165  A    between atoms: _374  and  _375
REMARK  166  A    between atoms: _374  and  _377
REMARK  167  A    between atoms: _377  and  _378
REMARK  168  A    between atoms: _381  and  _383
REMARK  169  A    between atoms: _383  and  _384
REMARK  170  A    between atoms: _383  and  _386
REMARK  171  A    between atoms: _386  and  _387
REMARK  172  A    between atoms: _387  and  _388
REMARK  173  A    between atoms: _388  and  _389
REMARK  174  A    between atoms: _389  and  ZN_411
REMARK  175  A    between atoms: _391  and  _393
REMARK  176  A    between atoms: _393  and  _394
REMARK  177  A    between atoms: _393  and  _396
REMARK  178  A    between atoms: _396  and  _397
REMARK  179  A    between atoms: _400  and  _402
REMARK  180  A    between atoms: _402  and  _403
REMARK  181  A    between atoms: _402  and  _405
REMARK  182  A    between atoms: _405  and  _406
REMARK                            x       y       z     vdW  Elec       q    Type
REMARK                         _______ _______ _______ _____ _____    ______ ____
ROOT
ATOM      1  O   HOH     1      47.879  38.924  56.771  0.00  0.00    +0.000 OA
ENDROOT
TORSDOF 0
REMARK  Name = ../refined-set-2016/2za0/2za0_pocket.pdb
REMARK  182 active torsions:
REMARK  status: ('A' for Active; 'I' for Inactive)
REMARK    1  A    between atoms: _1  and  _3
REMARK    2  A    between atoms: _3  and  _4
REMARK    3  A    between atoms: _3  and  _6
REMARK    4  A    between atoms: _6  and  _7
REMARK    5  A    between atoms: _7  and  _8
REMARK    6  A    between atoms: _8  and  _9
REMARK    7  A    between atoms: _18  and  _20
REMARK    8  A    between atoms: _20  and  _21
REMARK    9  A    between atoms: _20  and  _23
REMARK   10  A    between atoms: _23  and  _24
REMARK   11  A    between atoms: _28  and  ZN_411
REMARK   12  A    between atoms: _29  and  _31
REMARK   13  A    between atoms: _31  and  _32
REMARK   14  A    between atoms: _31  and  _34
REMARK   15  A    between atoms: _34  and  _35
REMARK   16  A    between atoms: _38  and  _40
REMARK   17  A    between atoms: _40  and  _41
REMARK   18  A    between atoms: _43  and  _45
REMARK   19  A    between atoms: _45  and  _46
REMARK   20  A    between atoms: _45  and  _48
REMARK   21  A    between atoms: _48  and  _49
REMARK   22  A    between atoms: _52  and  _54
REMARK   23  A    between atoms: _54  and  _55
REMARK   24  A    between atoms: _54  and  _57
REMARK   25  A    between atoms: _60  and  _62
REMARK   26  A    between atoms: _62  and  _63
REMARK   27  A    between atoms: _62  and  _65
REMARK   28  A    between atoms: _65  and  _66
REMARK   29  A    between atoms: _66  and  _67
REMARK   30  A    between atoms: _67  and  _68
REMARK   31  A    between atoms: _68  and  _69
REMARK   32  A    between atoms: _73  and  _75
REMARK   33  A    between atoms: _75  and  _76
REMARK   34  A    between atoms: _75  and  _78
REMARK   35  A    between atoms: _78  and  _79
REMARK   36  A    between atoms: _82  and  _84
REMARK   37  A    between atoms: _84  and  _85
REMARK   38  A    between atoms: _87  and  _89
REMARK   39  A    between atoms: _89  and  _90
REMARK   40  A    between atoms: _89  and  _92
REMARK   41  A    between atoms: _92  and  _93
REMARK   42  A    between atoms: _93  and  _94
REMARK   43  A    between atoms: _94  and  _95
REMARK   44  A    between atoms: _95  and  _96
REMARK   45  A    between atoms: _100  and  _102
REMARK   46  A    between atoms: _102  and  _103
REMARK   47  A    between atoms: _102  and  _105
REMARK   48  A    between atoms: _105  and  _106
REMARK   49  A    between atoms: _106  and  _107
REMARK   50  A    between atoms: _109  and  _111
REMARK   51  A    between atoms: _111  and  _112
REMARK   52  A    between atoms: _111  and  _114
REMARK   53  A    between atoms: _114  and  _115
REMARK   54  A    between atoms: _115  and  _116
REMARK   55  A    between atoms: _116  and  _117
REMARK   56  A    between atoms: _117  and  _118
REMARK   57  A    between atoms: _122  and  _124
REMARK   58  A    between atoms: _124  and  _125
REMARK   59  A    between atoms: _124  and  _127
REMARK   60  A    between atoms: _127  and  _128
REMARK   61  A    between atoms: _131  and  _133
REMARK   62  A    between atoms: _133  and  _134
REMARK   63  A    between atoms: _137  and  _139
REMARK   64  A    between atoms: _139  and  _140
REMARK   65  A    between atoms: _139  and  _142
REMARK   66  A    between atoms: _142  and  _143
REMARK   67  A    between atoms: _149  and  _151
REMARK   68  A    between atoms: _151  and  _152
REMARK   69  A    between atoms: _151  and  _154
REMARK   70  A    between atoms: _154  and  _155
REMARK   71  A    between atoms: _165  and  _167
REMARK   72  A    between atoms: _167  and  _168
REMARK   73  A    between atoms: _167  and  _170
REMARK   74  A    between atoms: _170  and  _171
REMARK   75  A    between atoms: _171  and  _172
REMARK   76  A    between atoms: _172  and  _173
REMARK   77  A    between atoms: _173  and  ZN_411
REMARK   78  A    between atoms: _175  and  _177
REMARK   79  A    between atoms: _177  and  _178
REMARK   80  A    between atoms: _177  and  _180
REMARK   81  A    between atoms: _180  and  _181
REMARK   82  A    between atoms: _184  and  _186
REMARK   83  A    between atoms: _186  and  _187
REMARK   84  A    between atoms: _186  and  _189
REMARK   85  A    between atoms: _189  and  _190
REMARK   86  A    between atoms: _193  and  _195
REMARK   87  A    between atoms: _195  and  _196
REMARK   88  A    between atoms: _195  and  _198
REMARK   89  A    between atoms: _198  and  _199
REMARK   90  A    between atoms: _199  and  _200
REMARK   91  A    between atoms: _200  and  _201
REMARK   92  A    between atoms: _201  and  _202
REMARK   93  A    between atoms: _206  and  _208
REMARK   94  A    between atoms: _208  and  _209
REMARK   95  A    between atoms: _208  and  _211
REMARK   96  A    between atoms: _211  and  _212
REMARK   97  A    between atoms: _215  and  _217
REMARK   98  A    between atoms: _217  and  _218
REMARK   99  A    between atoms: _221  and  _223
REMARK  100  A    between atoms: _223  and  _224
REMARK  101  A    between atoms: _223  and  _226
REMARK  102  A    between atoms: _226  and  _227
REMARK  103  A    between atoms: _230  and  _232
REMARK  104  A    between atoms: _232  and  _233
REMARK  105  A    between atoms: _232  and  _235
REMARK  106  A    between atoms: _235  and  _236
REMARK  107  A    between atoms: _236  and  _237
REMARK  108  A    between atoms: _242  and  _244
REMARK  109  A    between atoms: _244  and  _245
REMARK  110  A    between atoms: _244  and  _247
REMARK  111  A    between atoms: _247  and  _248
REMARK  112  A    between atoms: _248  and  _249
REMARK  113  A    between atoms: _249  and  _250
REMARK  114  A    between atoms: _249  and  _251
REMARK  115  A    between atoms: _250  and  ZN_411
REMARK  116  A    between atoms: _254  and  _256
REMARK  117  A    between atoms: _256  and  _257
REMARK  118  A    between atoms: _256  and  _259
REMARK  119  A    between atoms: _259  and  _260
REMARK  120  A    between atoms: _260  and  _261
REMARK  121  A    between atoms: _263  and  _265
REMARK  122  A    between atoms: _265  and  _266
REMARK  123  A    between atoms: _265  and  _268
REMARK  124  A    between atoms: _268  and  _269
REMARK  125  A    between atoms: _269  and  _270
REMARK  126  A    between atoms: _270  and  _271
REMARK  127  A    between atoms: _280  and  _282
REMARK  128  A    between atoms: _282  and  _283
REMARK  129  A    between atoms: _282  and  _285
REMARK  130  A    between atoms: _285  and  _286
REMARK  131  A    between atoms: _289  and  _291
REMARK  132  A    between atoms: _291  and  _292
REMARK  133  A    between atoms: _291  and  _294
REMARK  134  A    between atoms: _294  and  _295
REMARK  135  A    between atoms: _301  and  _303
REMARK  136  A    between atoms: _303  and  _304
REMARK  137  A    between atoms: _303  and  _306
REMARK  138  A    between atoms: _306  and  _307
REMARK  139  A    between atoms: _307  and  _308
REMARK  140  A    between atoms: _310  and  _312
REMARK  141  A    between atoms: _312  and  _313
REMARK  142  A    between atoms: _312  and  _315
REMARK  143  A    between atoms: _315  and  _316
REMARK  144  A    between atoms: _322  and  _324
REMARK  145  A    between atoms: _324  and  _325
REMARK  146  A    between atoms: _324  and  _327
REMARK  147  A    between atoms: _327  and  _328
REMARK  148  A    between atoms: _330  and  _332
REMARK  149  A    between atoms: _332  and  _333
REMARK  150  A    between atoms: _332  and  _335
REMARK  151  A    between atoms: _335  and  _336
REMARK  152  A    between atoms: _339  and  _341
REMARK  153  A    between atoms: _341  and  _342
REMARK  154  A    between atoms: _341  and  _344
REMARK  155  A    between atoms: _344  and  _345
REMARK  156  A    between atoms: _351  and  _353
REMARK  157  A    between atoms: _353  and  _354
REMARK  158  A    between atoms: _353  and  _356
REMARK  159  A    between atoms: _356  and  _357
REMARK  160  A    between atoms: _360  and  _362
REMARK  161  A    between atoms: _362  and  _363
REMARK  162  A    between atoms: _362  and  _365
REMARK  163  A    between atoms: _365  and  _366
REMARK  164  A    between atoms: _372  and  _374
REMARK  165  A    between atoms: _374  and  _375
REMARK  166  A    between atoms: _374  and  _377
REMARK  167  A    between atoms: _377  and  _378
REMARK  168  A    between atoms: _381  and  _383
REMARK  169  A    between atoms: _383  and  _384
REMARK  170  A    between atoms: _383  and  _386
REMARK  171  A    between atoms: _386  and  _387
REMARK  172  A    between atoms: _387  and  _388
REMARK  173  A    between atoms: _388  and  _389
REMARK  174  A    between atoms: _389  and  ZN_411
REMARK  175  A    between atoms: _391  and  _393
REMARK  176  A    between atoms: _393  and  _394
REMARK  177  A    between atoms: _393  and  _396
REMARK  178  A    between atoms: _396  and  _397
REMARK  179  A    between atoms: _400  and  _402
REMARK  180  A    between atoms: _402  and  _403
REMARK  181  A    between atoms: _402  and  _405
REMARK  182  A    between atoms: _405  and  _406
REMARK                            x       y       z     vdW  Elec       q    Type
REMARK                         _______ _______ _______ _____ _____    ______ ____
ROOT
ATOM      1  O   HOH     1      47.099  35.738  55.721  0.00  0.00    +0.000 OA
ENDROOT
TORSDOF 0
REMARK  Name = ../refined-set-2016/2za0/2za0_pocket.pdb
REMARK  182 active torsions:
REMARK  status: ('A' for Active; 'I' for Inactive)
REMARK    1  A    between atoms: _1  and  _3
REMARK    2  A    between atoms: _3  and  _4
REMARK    3  A    between atoms: _3  and  _6
REMARK    4  A    between atoms: _6  and  _7
REMARK    5  A    between atoms: _7  and  _8
REMARK    6  A    between atoms: _8  and  _9
REMARK    7  A    between atoms: _18  and  _20
REMARK    8  A    between atoms: _20  and  _21
REMARK    9  A    between atoms: _20  and  _23
REMARK   10  A    between atoms: _23  and  _24
REMARK   11  A    between atoms: _28  and  ZN_411
REMARK   12  A    between atoms: _29  and  _31
REMARK   13  A    between atoms: _31  and  _32
REMARK   14  A    between atoms: _31  and  _34
REMARK   15  A    between atoms: _34  and  _35
REMARK   16  A    between atoms: _38  and  _40
REMARK   17  A    between atoms: _40  and  _41
REMARK   18  A    between atoms: _43  and  _45
REMARK   19  A    between atoms: _45  and  _46
REMARK   20  A    between atoms: _45  and  _48
REMARK   21  A    between atoms: _48  and  _49
REMARK   22  A    between atoms: _52  and  _54
REMARK   23  A    between atoms: _54  and  _55
REMARK   24  A    between atoms: _54  and  _57
REMARK   25  A    between atoms: _60  and  _62
REMARK   26  A    between atoms: _62  and  _63
REMARK   27  A    between atoms: _62  and  _65
REMARK   28  A    between atoms: _65  and  _66
REMARK   29  A    between atoms: _66  and  _67
REMARK   30  A    between atoms: _67  and  _68
REMARK   31  A    between atoms: _68  and  _69
REMARK   32  A    between atoms: _73  and  _75
REMARK   33  A    between atoms: _75  and  _76
REMARK   34  A    between atoms: _75  and  _78
REMARK   35  A    between atoms: _78  and  _79
REMARK   36  A    between atoms: _82  and  _84
REMARK   37  A    between atoms: _84  and  _85
REMARK   38  A    between atoms: _87  and  _89
REMARK   39  A    between atoms: _89  and  _90
REMARK   40  A    between atoms: _89  and  _92
REMARK   41  A    between atoms: _92  and  _93
REMARK   42  A    between atoms: _93  and  _94
REMARK   43  A    between atoms: _94  and  _95
REMARK   44  A    between atoms: _95  and  _96
REMARK   45  A    between atoms: _100  and  _102
REMARK   46  A    between atoms: _102  and  _103
REMARK   47  A    between atoms: _102  and  _105
REMARK   48  A    between atoms: _105  and  _106
REMARK   49  A    between atoms: _106  and  _107
REMARK   50  A    between atoms: _109  and  _111
REMARK   51  A    between atoms: _111  and  _112
REMARK   52  A    between atoms: _111  and  _114
REMARK   53  A    between atoms: _114  and  _115
REMARK   54  A    between atoms: _115  and  _116
REMARK   55  A    between atoms: _116  and  _117
REMARK   56  A    between atoms: _117  and  _118
REMARK   57  A    between atoms: _122  and  _124
REMARK   58  A    between atoms: _124  and  _125
REMARK   59  A    between atoms: _124  and  _127
REMARK   60  A    between atoms: _127  and  _128
REMARK   61  A    between atoms: _131  and  _133
REMARK   62  A    between atoms: _133  and  _134
REMARK   63  A    between atoms: _137  and  _139
REMARK   64  A    between atoms: _139  and  _140
REMARK   65  A    between atoms: _139  and  _142
REMARK   66  A    between atoms: _142  and  _143
REMARK   67  A    between atoms: _149  and  _151
REMARK   68  A    between atoms: _151  and  _152
REMARK   69  A    between atoms: _151  and  _154
REMARK   70  A    between atoms: _154  and  _155
REMARK   71  A    between atoms: _165  and  _167
REMARK   72  A    between atoms: _167  and  _168
REMARK   73  A    between atoms: _167  and  _170
REMARK   74  A    between atoms: _170  and  _171
REMARK   75  A    between atoms: _171  and  _172
REMARK   76  A    between atoms: _172  and  _173
REMARK   77  A    between atoms: _173  and  ZN_411
REMARK   78  A    between atoms: _175  and  _177
REMARK   79  A    between atoms: _177  and  _178
REMARK   80  A    between atoms: _177  and  _180
REMARK   81  A    between atoms: _180  and  _181
REMARK   82  A    between atoms: _184  and  _186
REMARK   83  A    between atoms: _186  and  _187
REMARK   84  A    between atoms: _186  and  _189
REMARK   85  A    between atoms: _189  and  _190
REMARK   86  A    between atoms: _193  and  _195
REMARK   87  A    between atoms: _195  and  _196
REMARK   88  A    between atoms: _195  and  _198
REMARK   89  A    between atoms: _198  and  _199
REMARK   90  A    between atoms: _199  and  _200
REMARK   91  A    between atoms: _200  and  _201
REMARK   92  A    between atoms: _201  and  _202
REMARK   93  A    between atoms: _206  and  _208
REMARK   94  A    between atoms: _208  and  _209
REMARK   95  A    between atoms: _208  and  _211
REMARK   96  A    between atoms: _211  and  _212
REMARK   97  A    between atoms: _215  and  _217
REMARK   98  A    between atoms: _217  and  _218
REMARK   99  A    between atoms: _221  and  _223
REMARK  100  A    between atoms: _223  and  _224
REMARK  101  A    between atoms: _223  and  _226
REMARK  102  A    between atoms: _226  and  _227
REMARK  103  A    between atoms: _230  and  _232
REMARK  104  A    between atoms: _232  and  _233
REMARK  105  A    between atoms: _232  and  _235
REMARK  106  A    between atoms: _235  and  _236
REMARK  107  A    between atoms: _236  and  _237
REMARK  108  A    between atoms: _242  and  _244
REMARK  109  A    between atoms: _244  and  _245
REMARK  110  A    between atoms: _244  and  _247
REMARK  111  A    between atoms: _247  and  _248
REMARK  112  A    between atoms: _248  and  _249
REMARK  113  A    between atoms: _249  and  _250
REMARK  114  A    between atoms: _249  and  _251
REMARK  115  A    between atoms: _250  and  ZN_411
REMARK  116  A    between atoms: _254  and  _256
REMARK  117  A    between atoms: _256  and  _257
REMARK  118  A    between atoms: _256  and  _259
REMARK  119  A    between atoms: _259  and  _260
REMARK  120  A    between atoms: _260  and  _261
REMARK  121  A    between atoms: _263  and  _265
REMARK  122  A    between atoms: _265  and  _266
REMARK  123  A    between atoms: _265  and  _268
REMARK  124  A    between atoms: _268  and  _269
REMARK  125  A    between atoms: _269  and  _270
REMARK  126  A    between atoms: _270  and  _271
REMARK  127  A    between atoms: _280  and  _282
REMARK  128  A    between atoms: _282  and  _283
REMARK  129  A    between atoms: _282  and  _285
REMARK  130  A    between atoms: _285  and  _286
REMARK  131  A    between atoms: _289  and  _291
REMARK  132  A    between atoms: _291  and  _292
REMARK  133  A    between atoms: _291  and  _294
REMARK  134  A    between atoms: _294  and  _295
REMARK  135  A    between atoms: _301  and  _303
REMARK  136  A    between atoms: _303  and  _304
REMARK  137  A    between atoms: _303  and  _306
REMARK  138  A    between atoms: _306  and  _307
REMARK  139  A    between atoms: _307  and  _308
REMARK  140  A    between atoms: _310  and  _312
REMARK  141  A    between atoms: _312  and  _313
REMARK  142  A    between atoms: _312  and  _315
REMARK  143  A    between atoms: _315  and  _316
REMARK  144  A    between atoms: _322  and  _324
REMARK  145  A    between atoms: _324  and  _325
REMARK  146  A    between atoms: _324  and  _327
REMARK  147  A    between atoms: _327  and  _328
REMARK  148  A    between atoms: _330  and  _332
REMARK  149  A    between atoms: _332  and  _333
REMARK  150  A    between atoms: _332  and  _335
REMARK  151  A    between atoms: _335  and  _336
REMARK  152  A    between atoms: _339  and  _341
REMARK  153  A    between atoms: _341  and  _342
REMARK  154  A    between atoms: _341  and  _344
REMARK  155  A    between atoms: _344  and  _345
REMARK  156  A    between atoms: _351  and  _353
REMARK  157  A    between atoms: _353  and  _354
REMARK  158  A    between atoms: _353  and  _356
REMARK  159  A    between atoms: _356  and  _357
REMARK  160  A    between atoms: _360  and  _362
REMARK  161  A    between atoms: _362  and  _363
REMARK  162  A    between atoms: _362  and  _365
REMARK  163  A    between atoms: _365  and  _366
REMARK  164  A    between atoms: _372  and  _374
REMARK  165  A    between atoms: _374  and  _375
REMARK  166  A    between atoms: _374  and  _377
REMARK  167  A    between atoms: _377  and  _378
REMARK  168  A    between atoms: _381  and  _383
REMARK  169  A    between atoms: _383  and  _384
REMARK  170  A    between atoms: _383  and  _386
REMARK  171  A    between atoms: _386  and  _387
REMARK  172  A    between atoms: _387  and  _388
REMARK  173  A    between atoms: _388  and  _389
REMARK  174  A    between atoms: _389  and  ZN_411
REMARK  175  A    between atoms: _391  and  _393
REMARK  176  A    between atoms: _393  and  _394
REMARK  177  A    between atoms: _393  and  _396
REMARK  178  A    between atoms: _396  and  _397
REMARK  179  A    between atoms: _400  and  _402
REMARK  180  A    between atoms: _402  and  _403
REMARK  181  A    between atoms: _402  and  _405
REMARK  182  A    between atoms: _405  and  _406
REMARK                            x       y       z     vdW  Elec       q    Type
REMARK                         _______ _______ _______ _____ _____    ______ ____
ROOT
ATOM      1  O   HOH     1      38.344  31.322  67.418  0.00  0.00    +0.000 OA
ENDROOT
TORSDOF 0
REMARK  Name = ../refined-set-2016/2za0/2za0_pocket.pdb
REMARK  182 active torsions:
REMARK  status: ('A' for Active; 'I' for Inactive)
REMARK    1  A    between atoms: _1  and  _3
REMARK    2  A    between atoms: _3  and  _4
REMARK    3  A    between atoms: _3  and  _6
REMARK    4  A    between atoms: _6  and  _7
REMARK    5  A    between atoms: _7  and  _8
REMARK    6  A    between atoms: _8  and  _9
REMARK    7  A    between atoms: _18  and  _20
REMARK    8  A    between atoms: _20  and  _21
REMARK    9  A    between atoms: _20  and  _23
REMARK   10  A    between atoms: _23  and  _24
REMARK   11  A    between atoms: _28  and  ZN_411
REMARK   12  A    between atoms: _29  and  _31
REMARK   13  A    between atoms: _31  and  _32
REMARK   14  A    between atoms: _31  and  _34
REMARK   15  A    between atoms: _34  and  _35
REMARK   16  A    between atoms: _38  and  _40
REMARK   17  A    between atoms: _40  and  _41
REMARK   18  A    between atoms: _43  and  _45
REMARK   19  A    between atoms: _45  and  _46
REMARK   20  A    between atoms: _45  and  _48
REMARK   21  A    between atoms: _48  and  _49
REMARK   22  A    between atoms: _52  and  _54
REMARK   23  A    between atoms: _54  and  _55
REMARK   24  A    between atoms: _54  and  _57
REMARK   25  A    between atoms: _60  and  _62
REMARK   26  A    between atoms: _62  and  _63
REMARK   27  A    between atoms: _62  and  _65
REMARK   28  A    between atoms: _65  and  _66
REMARK   29  A    between atoms: _66  and  _67
REMARK   30  A    between atoms: _67  and  _68
REMARK   31  A    between atoms: _68  and  _69
REMARK   32  A    between atoms: _73  and  _75
REMARK   33  A    between atoms: _75  and  _76
REMARK   34  A    between atoms: _75  and  _78
REMARK   35  A    between atoms: _78  and  _79
REMARK   36  A    between atoms: _82  and  _84
REMARK   37  A    between atoms: _84  and  _85
REMARK   38  A    between atoms: _87  and  _89
REMARK   39  A    between atoms: _89  and  _90
REMARK   40  A    between atoms: _89  and  _92
REMARK   41  A    between atoms: _92  and  _93
REMARK   42  A    between atoms: _93  and  _94
REMARK   43  A    between atoms: _94  and  _95
REMARK   44  A    between atoms: _95  and  _96
REMARK   45  A    between atoms: _100  and  _102
REMARK   46  A    between atoms: _102  and  _103
REMARK   47  A    between atoms: _102  and  _105
REMARK   48  A    between atoms: _105  and  _106
REMARK   49  A    between atoms: _106  and  _107
REMARK   50  A    between atoms: _109  and  _111
REMARK   51  A    between atoms: _111  and  _112
REMARK   52  A    between atoms: _111  and  _114
REMARK   53  A    between atoms: _114  and  _115
REMARK   54  A    between atoms: _115  and  _116
REMARK   55  A    between atoms: _116  and  _117
REMARK   56  A    between atoms: _117  and  _118
REMARK   57  A    between atoms: _122  and  _124
REMARK   58  A    between atoms: _124  and  _125
REMARK   59  A    between atoms: _124  and  _127
REMARK   60  A    between atoms: _127  and  _128
REMARK   61  A    between atoms: _131  and  _133
REMARK   62  A    between atoms: _133  and  _134
REMARK   63  A    between atoms: _137  and  _139
REMARK   64  A    between atoms: _139  and  _140
REMARK   65  A    between atoms: _139  and  _142
REMARK   66  A    between atoms: _142  and  _143
REMARK   67  A    between atoms: _149  and  _151
REMARK   68  A    between atoms: _151  and  _152
REMARK   69  A    between atoms: _151  and  _154
REMARK   70  A    between atoms: _154  and  _155
REMARK   71  A    between atoms: _165  and  _167
REMARK   72  A    between atoms: _167  and  _168
REMARK   73  A    between atoms: _167  and  _170
REMARK   74  A    between atoms: _170  and  _171
REMARK   75  A    between atoms: _171  and  _172
REMARK   76  A    between atoms: _172  and  _173
REMARK   77  A    between atoms: _173  and  ZN_411
REMARK   78  A    between atoms: _175  and  _177
REMARK   79  A    between atoms: _177  and  _178
REMARK   80  A    between atoms: _177  and  _180
REMARK   81  A    between atoms: _180  and  _181
REMARK   82  A    between atoms: _184  and  _186
REMARK   83  A    between atoms: _186  and  _187
REMARK   84  A    between atoms: _186  and  _189
REMARK   85  A    between atoms: _189  and  _190
REMARK   86  A    between atoms: _193  and  _195
REMARK   87  A    between atoms: _195  and  _196
REMARK   88  A    between atoms: _195  and  _198
REMARK   89  A    between atoms: _198  and  _199
REMARK   90  A    between atoms: _199  and  _200
REMARK   91  A    between atoms: _200  and  _201
REMARK   92  A    between atoms: _201  and  _202
REMARK   93  A    between atoms: _206  and  _208
REMARK   94  A    between atoms: _208  and  _209
REMARK   95  A    between atoms: _208  and  _211
REMARK   96  A    between atoms: _211  and  _212
REMARK   97  A    between atoms: _215  and  _217
REMARK   98  A    between atoms: _217  and  _218
REMARK   99  A    between atoms: _221  and  _223
REMARK  100  A    between atoms: _223  and  _224
REMARK  101  A    between atoms: _223  and  _226
REMARK  102  A    between atoms: _226  and  _227
REMARK  103  A    between atoms: _230  and  _232
REMARK  104  A    between atoms: _232  and  _233
REMARK  105  A    between atoms: _232  and  _235
REMARK  106  A    between atoms: _235  and  _236
REMARK  107  A    between atoms: _236  and  _237
REMARK  108  A    between atoms: _242  and  _244
REMARK  109  A    between atoms: _244  and  _245
REMARK  110  A    between atoms: _244  and  _247
REMARK  111  A    between atoms: _247  and  _248
REMARK  112  A    between atoms: _248  and  _249
REMARK  113  A    between atoms: _249  and  _250
REMARK  114  A    between atoms: _249  and  _251
REMARK  115  A    between atoms: _250  and  ZN_411
REMARK  116  A    between atoms: _254  and  _256
REMARK  117  A    between atoms: _256  and  _257
REMARK  118  A    between atoms: _256  and  _259
REMARK  119  A    between atoms: _259  and  _260
REMARK  120  A    between atoms: _260  and  _261
REMARK  121  A    between atoms: _263  and  _265
REMARK  122  A    between atoms: _265  and  _266
REMARK  123  A    between atoms: _265  and  _268
REMARK  124  A    between atoms: _268  and  _269
REMARK  125  A    between atoms: _269  and  _270
REMARK  126  A    between atoms: _270  and  _271
REMARK  127  A    between atoms: _280  and  _282
REMARK  128  A    between atoms: _282  and  _283
REMARK  129  A    between atoms: _282  and  _285
REMARK  130  A    between atoms: _285  and  _286
REMARK  131  A    between atoms: _289  and  _291
REMARK  132  A    between atoms: _291  and  _292
REMARK  133  A    between atoms: _291  and  _294
REMARK  134  A    between atoms: _294  and  _295
REMARK  135  A    between atoms: _301  and  _303
REMARK  136  A    between atoms: _303  and  _304
REMARK  137  A    between atoms: _303  and  _306
REMARK  138  A    between atoms: _306  and  _307
REMARK  139  A    between atoms: _307  and  _308
REMARK  140  A    between atoms: _310  and  _312
REMARK  141  A    between atoms: _312  and  _313
REMARK  142  A    between atoms: _312  and  _315
REMARK  143  A    between atoms: _315  and  _316
REMARK  144  A    between atoms: _322  and  _324
REMARK  145  A    between atoms: _324  and  _325
REMARK  146  A    between atoms: _324  and  _327
REMARK  147  A    between atoms: _327  and  _328
REMARK  148  A    between atoms: _330  and  _332
REMARK  149  A    between atoms: _332  and  _333
REMARK  150  A    between atoms: _332  and  _335
REMARK  151  A    between atoms: _335  and  _336
REMARK  152  A    between atoms: _339  and  _341
REMARK  153  A    between atoms: _341  and  _342
REMARK  154  A    between atoms: _341  and  _344
REMARK  155  A    between atoms: _344  and  _345
REMARK  156  A    between atoms: _351  and  _353
REMARK  157  A    between atoms: _353  and  _354
REMARK  158  A    between atoms: _353  and  _356
REMARK  159  A    between atoms: _356  and  _357
REMARK  160  A    between atoms: _360  and  _362
REMARK  161  A    between atoms: _362  and  _363
REMARK  162  A    between atoms: _362  and  _365
REMARK  163  A    between atoms: _365  and  _366
REMARK  164  A    between atoms: _372  and  _374
REMARK  165  A    between atoms: _374  and  _375
REMARK  166  A    between atoms: _374  and  _377
REMARK  167  A    between atoms: _377  and  _378
REMARK  168  A    between atoms: _381  and  _383
REMARK  169  A    between atoms: _383  and  _384
REMARK  170  A    between atoms: _383  and  _386
REMARK  171  A    between atoms: _386  and  _387
REMARK  172  A    between atoms: _387  and  _388
REMARK  173  A    between atoms: _388  and  _389
REMARK  174  A    between atoms: _389  and  ZN_411
REMARK  175  A    between atoms: _391  and  _393
REMARK  176  A    between atoms: _393  and  _394
REMARK  177  A    between atoms: _393  and  _396
REMARK  178  A    between atoms: _396  and  _397
REMARK  179  A    between atoms: _400  and  _402
REMARK  180  A    between atoms: _402  and  _403
REMARK  181  A    between atoms: _402  and  _405
REMARK  182  A    between atoms: _405  and  _406
REMARK                            x       y       z     vdW  Elec       q    Type
REMARK                         _______ _______ _______ _____ _____    ______ ____
ROOT
ATOM      1  O   HOH     1      44.565  36.899  55.527  0.00  0.00    +0.000 OA
ENDROOT
TORSDOF 0
REMARK  Name = ../refined-set-2016/2za0/2za0_pocket.pdb
REMARK  182 active torsions:
REMARK  status: ('A' for Active; 'I' for Inactive)
REMARK    1  A    between atoms: _1  and  _3
REMARK    2  A    between atoms: _3  and  _4
REMARK    3  A    between atoms: _3  and  _6
REMARK    4  A    between atoms: _6  and  _7
REMARK    5  A    between atoms: _7  and  _8
REMARK    6  A    between atoms: _8  and  _9
REMARK    7  A    between atoms: _18  and  _20
REMARK    8  A    between atoms: _20  and  _21
REMARK    9  A    between atoms: _20  and  _23
REMARK   10  A    between atoms: _23  and  _24
REMARK   11  A    between atoms: _28  and  ZN_411
REMARK   12  A    between atoms: _29  and  _31
REMARK   13  A    between atoms: _31  and  _32
REMARK   14  A    between atoms: _31  and  _34
REMARK   15  A    between atoms: _34  and  _35
REMARK   16  A    between atoms: _38  and  _40
REMARK   17  A    between atoms: _40  and  _41
REMARK   18  A    between atoms: _43  and  _45
REMARK   19  A    between atoms: _45  and  _46
REMARK   20  A    between atoms: _45  and  _48
REMARK   21  A    between atoms: _48  and  _49
REMARK   22  A    between atoms: _52  and  _54
REMARK   23  A    between atoms: _54  and  _55
REMARK   24  A    between atoms: _54  and  _57
REMARK   25  A    between atoms: _60  and  _62
REMARK   26  A    between atoms: _62  and  _63
REMARK   27  A    between atoms: _62  and  _65
REMARK   28  A    between atoms: _65  and  _66
REMARK   29  A    between atoms: _66  and  _67
REMARK   30  A    between atoms: _67  and  _68
REMARK   31  A    between atoms: _68  and  _69
REMARK   32  A    between atoms: _73  and  _75
REMARK   33  A    between atoms: _75  and  _76
REMARK   34  A    between atoms: _75  and  _78
REMARK   35  A    between atoms: _78  and  _79
REMARK   36  A    between atoms: _82  and  _84
REMARK   37  A    between atoms: _84  and  _85
REMARK   38  A    between atoms: _87  and  _89
REMARK   39  A    between atoms: _89  and  _90
REMARK   40  A    between atoms: _89  and  _92
REMARK   41  A    between atoms: _92  and  _93
REMARK   42  A    between atoms: _93  and  _94
REMARK   43  A    between atoms: _94  and  _95
REMARK   44  A    between atoms: _95  and  _96
REMARK   45  A    between atoms: _100  and  _102
REMARK   46  A    between atoms: _102  and  _103
REMARK   47  A    between atoms: _102  and  _105
REMARK   48  A    between atoms: _105  and  _106
REMARK   49  A    between atoms: _106  and  _107
REMARK   50  A    between atoms: _109  and  _111
REMARK   51  A    between atoms: _111  and  _112
REMARK   52  A    between atoms: _111  and  _114
REMARK   53  A    between atoms: _114  and  _115
REMARK   54  A    between atoms: _115  and  _116
REMARK   55  A    between atoms: _116  and  _117
REMARK   56  A    between atoms: _117  and  _118
REMARK   57  A    between atoms: _122  and  _124
REMARK   58  A    between atoms: _124  and  _125
REMARK   59  A    between atoms: _124  and  _127
REMARK   60  A    between atoms: _127  and  _128
REMARK   61  A    between atoms: _131  and  _133
REMARK   62  A    between atoms: _133  and  _134
REMARK   63  A    between atoms: _137  and  _139
REMARK   64  A    between atoms: _139  and  _140
REMARK   65  A    between atoms: _139  and  _142
REMARK   66  A    between atoms: _142  and  _143
REMARK   67  A    between atoms: _149  and  _151
REMARK   68  A    between atoms: _151  and  _152
REMARK   69  A    between atoms: _151  and  _154
REMARK   70  A    between atoms: _154  and  _155
REMARK   71  A    between atoms: _165  and  _167
REMARK   72  A    between atoms: _167  and  _168
REMARK   73  A    between atoms: _167  and  _170
REMARK   74  A    between atoms: _170  and  _171
REMARK   75  A    between atoms: _171  and  _172
REMARK   76  A    between atoms: _172  and  _173
REMARK   77  A    between atoms: _173  and  ZN_411
REMARK   78  A    between atoms: _175  and  _177
REMARK   79  A    between atoms: _177  and  _178
REMARK   80  A    between atoms: _177  and  _180
REMARK   81  A    between atoms: _180  and  _181
REMARK   82  A    between atoms: _184  and  _186
REMARK   83  A    between atoms: _186  and  _187
REMARK   84  A    between atoms: _186  and  _189
REMARK   85  A    between atoms: _189  and  _190
REMARK   86  A    between atoms: _193  and  _195
REMARK   87  A    between atoms: _195  and  _196
REMARK   88  A    between atoms: _195  and  _198
REMARK   89  A    between atoms: _198  and  _199
REMARK   90  A    between atoms: _199  and  _200
REMARK   91  A    between atoms: _200  and  _201
REMARK   92  A    between atoms: _201  and  _202
REMARK   93  A    between atoms: _206  and  _208
REMARK   94  A    between atoms: _208  and  _209
REMARK   95  A    between atoms: _208  and  _211
REMARK   96  A    between atoms: _211  and  _212
REMARK   97  A    between atoms: _215  and  _217
REMARK   98  A    between atoms: _217  and  _218
REMARK   99  A    between atoms: _221  and  _223
REMARK  100  A    between atoms: _223  and  _224
REMARK  101  A    between atoms: _223  and  _226
REMARK  102  A    between atoms: _226  and  _227
REMARK  103  A    between atoms: _230  and  _232
REMARK  104  A    between atoms: _232  and  _233
REMARK  105  A    between atoms: _232  and  _235
REMARK  106  A    between atoms: _235  and  _236
REMARK  107  A    between atoms: _236  and  _237
REMARK  108  A    between atoms: _242  and  _244
REMARK  109  A    between atoms: _244  and  _245
REMARK  110  A    between atoms: _244  and  _247
REMARK  111  A    between atoms: _247  and  _248
REMARK  112  A    between atoms: _248  and  _249
REMARK  113  A    between atoms: _249  and  _250
REMARK  114  A    between atoms: _249  and  _251
REMARK  115  A    between atoms: _250  and  ZN_411
REMARK  116  A    between atoms: _254  and  _256
REMARK  117  A    between atoms: _256  and  _257
REMARK  118  A    between atoms: _256  and  _259
REMARK  119  A    between atoms: _259  and  _260
REMARK  120  A    between atoms: _260  and  _261
REMARK  121  A    between atoms: _263  and  _265
REMARK  122  A    between atoms: _265  and  _266
REMARK  123  A    between atoms: _265  and  _268
REMARK  124  A    between atoms: _268  and  _269
REMARK  125  A    between atoms: _269  and  _270
REMARK  126  A    between atoms: _270  and  _271
REMARK  127  A    between atoms: _280  and  _282
REMARK  128  A    between atoms: _282  and  _283
REMARK  129  A    between atoms: _282  and  _285
REMARK  130  A    between atoms: _285  and  _286
REMARK  131  A    between atoms: _289  and  _291
REMARK  132  A    between atoms: _291  and  _292
REMARK  133  A    between atoms: _291  and  _294
REMARK  134  A    between atoms: _294  and  _295
REMARK  135  A    between atoms: _301  and  _303
REMARK  136  A    between atoms: _303  and  _304
REMARK  137  A    between atoms: _303  and  _306
REMARK  138  A    between atoms: _306  and  _307
REMARK  139  A    between atoms: _307  and  _308
REMARK  140  A    between atoms: _310  and  _312
REMARK  141  A    between atoms: _312  and  _313
REMARK  142  A    between atoms: _312  and  _315
REMARK  143  A    between atoms: _315  and  _316
REMARK  144  A    between atoms: _322  and  _324
REMARK  145  A    between atoms: _324  and  _325
REMARK  146  A    between atoms: _324  and  _327
REMARK  147  A    between atoms: _327  and  _328
REMARK  148  A    between atoms: _330  and  _332
REMARK  149  A    between atoms: _332  and  _333
REMARK  150  A    between atoms: _332  and  _335
REMARK  151  A    between atoms: _335  and  _336
REMARK  152  A    between atoms: _339  and  _341
REMARK  153  A    between atoms: _341  and  _342
REMARK  154  A    between atoms: _341  and  _344
REMARK  155  A    between atoms: _344  and  _345
REMARK  156  A    between atoms: _351  and  _353
REMARK  157  A    between atoms: _353  and  _354
REMARK  158  A    between atoms: _353  and  _356
REMARK  159  A    between atoms: _356  and  _357
REMARK  160  A    between atoms: _360  and  _362
REMARK  161  A    between atoms: _362  and  _363
REMARK  162  A    between atoms: _362  and  _365
REMARK  163  A    between atoms: _365  and  _366
REMARK  164  A    between atoms: _372  and  _374
REMARK  165  A    between atoms: _374  and  _375
REMARK  166  A    between atoms: _374  and  _377
REMARK  167  A    between atoms: _377  and  _378
REMARK  168  A    between atoms: _381  and  _383
REMARK  169  A    between atoms: _383  and  _384
REMARK  170  A    between atoms: _383  and  _386
REMARK  171  A    between atoms: _386  and  _387
REMARK  172  A    between atoms: _387  and  _388
REMARK  173  A    between atoms: _388  and  _389
REMARK  174  A    between atoms: _389  and  ZN_411
REMARK  175  A    between atoms: _391  and  _393
REMARK  176  A    between atoms: _393  and  _394
REMARK  177  A    between atoms: _393  and  _396
REMARK  178  A    between atoms: _396  and  _397
REMARK  179  A    between atoms: _400  and  _402
REMARK  180  A    between atoms: _402  and  _403
REMARK  181  A    between atoms: _402  and  _405
REMARK  182  A    between atoms: _405  and  _406
REMARK                            x       y       z     vdW  Elec       q    Type
REMARK                         _______ _______ _______ _____ _____    ______ ____
ROOT
ATOM      1  O   HOH     1      40.879  33.440  56.707  0.00  0.00    +0.000 OA
ENDROOT
TORSDOF 0
REMARK  Name = ../refined-set-2016/2za0/2za0_pocket.pdb
REMARK  182 active torsions:
REMARK  status: ('A' for Active; 'I' for Inactive)
REMARK    1  A    between atoms: _1  and  _3
REMARK    2  A    between atoms: _3  and  _4
REMARK    3  A    between atoms: _3  and  _6
REMARK    4  A    between atoms: _6  and  _7
REMARK    5  A    between atoms: _7  and  _8
REMARK    6  A    between atoms: _8  and  _9
REMARK    7  A    between atoms: _18  and  _20
REMARK    8  A    between atoms: _20  and  _21
REMARK    9  A    between atoms: _20  and  _23
REMARK   10  A    between atoms: _23  and  _24
REMARK   11  A    between atoms: _28  and  ZN_411
REMARK   12  A    between atoms: _29  and  _31
REMARK   13  A    between atoms: _31  and  _32
REMARK   14  A    between atoms: _31  and  _34
REMARK   15  A    between atoms: _34  and  _35
REMARK   16  A    between atoms: _38  and  _40
REMARK   17  A    between atoms: _40  and  _41
REMARK   18  A    between atoms: _43  and  _45
REMARK   19  A    between atoms: _45  and  _46
REMARK   20  A    between atoms: _45  and  _48
REMARK   21  A    between atoms: _48  and  _49
REMARK   22  A    between atoms: _52  and  _54
REMARK   23  A    between atoms: _54  and  _55
REMARK   24  A    between atoms: _54  and  _57
REMARK   25  A    between atoms: _60  and  _62
REMARK   26  A    between atoms: _62  and  _63
REMARK   27  A    between atoms: _62  and  _65
REMARK   28  A    between atoms: _65  and  _66
REMARK   29  A    between atoms: _66  and  _67
REMARK   30  A    between atoms: _67  and  _68
REMARK   31  A    between atoms: _68  and  _69
REMARK   32  A    between atoms: _73  and  _75
REMARK   33  A    between atoms: _75  and  _76
REMARK   34  A    between atoms: _75  and  _78
REMARK   35  A    between atoms: _78  and  _79
REMARK   36  A    between atoms: _82  and  _84
REMARK   37  A    between atoms: _84  and  _85
REMARK   38  A    between atoms: _87  and  _89
REMARK   39  A    between atoms: _89  and  _90
REMARK   40  A    between atoms: _89  and  _92
REMARK   41  A    between atoms: _92  and  _93
REMARK   42  A    between atoms: _93  and  _94
REMARK   43  A    between atoms: _94  and  _95
REMARK   44  A    between atoms: _95  and  _96
REMARK   45  A    between atoms: _100  and  _102
REMARK   46  A    between atoms: _102  and  _103
REMARK   47  A    between atoms: _102  and  _105
REMARK   48  A    between atoms: _105  and  _106
REMARK   49  A    between atoms: _106  and  _107
REMARK   50  A    between atoms: _109  and  _111
REMARK   51  A    between atoms: _111  and  _112
REMARK   52  A    between atoms: _111  and  _114
REMARK   53  A    between atoms: _114  and  _115
REMARK   54  A    between atoms: _115  and  _116
REMARK   55  A    between atoms: _116  and  _117
REMARK   56  A    between atoms: _117  and  _118
REMARK   57  A    between atoms: _122  and  _124
REMARK   58  A    between atoms: _124  and  _125
REMARK   59  A    between atoms: _124  and  _127
REMARK   60  A    between atoms: _127  and  _128
REMARK   61  A    between atoms: _131  and  _133
REMARK   62  A    between atoms: _133  and  _134
REMARK   63  A    between atoms: _137  and  _139
REMARK   64  A    between atoms: _139  and  _140
REMARK   65  A    between atoms: _139  and  _142
REMARK   66  A    between atoms: _142  and  _143
REMARK   67  A    between atoms: _149  and  _151
REMARK   68  A    between atoms: _151  and  _152
REMARK   69  A    between atoms: _151  and  _154
REMARK   70  A    between atoms: _154  and  _155
REMARK   71  A    between atoms: _165  and  _167
REMARK   72  A    between atoms: _167  and  _168
REMARK   73  A    between atoms: _167  and  _170
REMARK   74  A    between atoms: _170  and  _171
REMARK   75  A    between atoms: _171  and  _172
REMARK   76  A    between atoms: _172  and  _173
REMARK   77  A    between atoms: _173  and  ZN_411
REMARK   78  A    between atoms: _175  and  _177
REMARK   79  A    between atoms: _177  and  _178
REMARK   80  A    between atoms: _177  and  _180
REMARK   81  A    between atoms: _180  and  _181
REMARK   82  A    between atoms: _184  and  _186
REMARK   83  A    between atoms: _186  and  _187
REMARK   84  A    between atoms: _186  and  _189
REMARK   85  A    between atoms: _189  and  _190
REMARK   86  A    between atoms: _193  and  _195
REMARK   87  A    between atoms: _195  and  _196
REMARK   88  A    between atoms: _195  and  _198
REMARK   89  A    between atoms: _198  and  _199
REMARK   90  A    between atoms: _199  and  _200
REMARK   91  A    between atoms: _200  and  _201
REMARK   92  A    between atoms: _201  and  _202
REMARK   93  A    between atoms: _206  and  _208
REMARK   94  A    between atoms: _208  and  _209
REMARK   95  A    between atoms: _208  and  _211
REMARK   96  A    between atoms: _211  and  _212
REMARK   97  A    between atoms: _215  and  _217
REMARK   98  A    between atoms: _217  and  _218
REMARK   99  A    between atoms: _221  and  _223
REMARK  100  A    between atoms: _223  and  _224
REMARK  101  A    between atoms: _223  and  _226
REMARK  102  A    between atoms: _226  and  _227
REMARK  103  A    between atoms: _230  and  _232
REMARK  104  A    between atoms: _232  and  _233
REMARK  105  A    between atoms: _232  and  _235
REMARK  106  A    between atoms: _235  and  _236
REMARK  107  A    between atoms: _236  and  _237
REMARK  108  A    between atoms: _242  and  _244
REMARK  109  A    between atoms: _244  and  _245
REMARK  110  A    between atoms: _244  and  _247
REMARK  111  A    between atoms: _247  and  _248
REMARK  112  A    between atoms: _248  and  _249
REMARK  113  A    between atoms: _249  and  _250
REMARK  114  A    between atoms: _249  and  _251
REMARK  115  A    between atoms: _250  and  ZN_411
REMARK  116  A    between atoms: _254  and  _256
REMARK  117  A    between atoms: _256  and  _257
REMARK  118  A    between atoms: _256  and  _259
REMARK  119  A    between atoms: _259  and  _260
REMARK  120  A    between atoms: _260  and  _261
REMARK  121  A    between atoms: _263  and  _265
REMARK  122  A    between atoms: _265  and  _266
REMARK  123  A    between atoms: _265  and  _268
REMARK  124  A    between atoms: _268  and  _269
REMARK  125  A    between atoms: _269  and  _270
REMARK  126  A    between atoms: _270  and  _271
REMARK  127  A    between atoms: _280  and  _282
REMARK  128  A    between atoms: _282  and  _283
REMARK  129  A    between atoms: _282  and  _285
REMARK  130  A    between atoms: _285  and  _286
REMARK  131  A    between atoms: _289  and  _291
REMARK  132  A    between atoms: _291  and  _292
REMARK  133  A    between atoms: _291  and  _294
REMARK  134  A    between atoms: _294  and  _295
REMARK  135  A    between atoms: _301  and  _303
REMARK  136  A    between atoms: _303  and  _304
REMARK  137  A    between atoms: _303  and  _306
REMARK  138  A    between atoms: _306  and  _307
REMARK  139  A    between atoms: _307  and  _308
REMARK  140  A    between atoms: _310  and  _312
REMARK  141  A    between atoms: _312  and  _313
REMARK  142  A    between atoms: _312  and  _315
REMARK  143  A    between atoms: _315  and  _316
REMARK  144  A    between atoms: _322  and  _324
REMARK  145  A    between atoms: _324  and  _325
REMARK  146  A    between atoms: _324  and  _327
REMARK  147  A    between atoms: _327  and  _328
REMARK  148  A    between atoms: _330  and  _332
REMARK  149  A    between atoms: _332  and  _333
REMARK  150  A    between atoms: _332  and  _335
REMARK  151  A    between atoms: _335  and  _336
REMARK  152  A    between atoms: _339  and  _341
REMARK  153  A    between atoms: _341  and  _342
REMARK  154  A    between atoms: _341  and  _344
REMARK  155  A    between atoms: _344  and  _345
REMARK  156  A    between atoms: _351  and  _353
REMARK  157  A    between atoms: _353  and  _354
REMARK  158  A    between atoms: _353  and  _356
REMARK  159  A    between atoms: _356  and  _357
REMARK  160  A    between atoms: _360  and  _362
REMARK  161  A    between atoms: _362  and  _363
REMARK  162  A    between atoms: _362  and  _365
REMARK  163  A    between atoms: _365  and  _366
REMARK  164  A    between atoms: _372  and  _374
REMARK  165  A    between atoms: _374  and  _375
REMARK  166  A    between atoms: _374  and  _377
REMARK  167  A    between atoms: _377  and  _378
REMARK  168  A    between atoms: _381  and  _383
REMARK  169  A    between atoms: _383  and  _384
REMARK  170  A    between atoms: _383  and  _386
REMARK  171  A    between atoms: _386  and  _387
REMARK  172  A    between atoms: _387  and  _388
REMARK  173  A    between atoms: _388  and  _389
REMARK  174  A    between atoms: _389  and  ZN_411
REMARK  175  A    between atoms: _391  and  _393
REMARK  176  A    between atoms: _393  and  _394
REMARK  177  A    between atoms: _393  and  _396
REMARK  178  A    between atoms: _396  and  _397
REMARK  179  A    between atoms: _400  and  _402
REMARK  180  A    between atoms: _402  and  _403
REMARK  181  A    between atoms: _402  and  _405
REMARK  182  A    between atoms: _405  and  _406
REMARK                            x       y       z     vdW  Elec       q    Type
REMARK                         _______ _______ _______ _____ _____    ______ ____
ROOT
ATOM      1  O   HOH     1      43.376  34.489  56.213  0.00  0.00    +0.000 OA
ENDROOT
TORSDOF 0
