REMARK  Name = ../refined-set-2016/3p9m/3p9m_pocket.pdb
REMARK  326 active torsions:
REMARK  status: ('A' for Active; 'I' for Inactive)
REMARK    1  A    between atoms: _1  and  _3
REMARK    2  A    between atoms: _3  and  _4
REMARK    3  A    between atoms: _3  and  _6
REMARK    4  A    between atoms: _6  and  _7
REMARK    5  A    between atoms: _10  and  _12
REMARK    6  A    between atoms: _12  and  _13
REMARK    7  A    between atoms: _12  and  _15
REMARK    8  A    between atoms: _15  and  _16
REMARK    9  A    between atoms: _16  and  _17
REMARK   10  A    between atoms: _17  and  _18
REMARK   11  A    between atoms: _27  and  _29
REMARK   12  A    between atoms: _29  and  _30
REMARK   13  A    between atoms: _29  and  _32
REMARK   14  A    between atoms: _32  and  _33
REMARK   15  A    between atoms: _38  and  _39
REMARK   16  A    between atoms: _41  and  _43
REMARK   17  A    between atoms: _43  and  _44
REMARK   18  A    between atoms: _43  and  _46
REMARK   19  A    between atoms: _46  and  _47
REMARK   20  A    between atoms: _53  and  _55
REMARK   21  A    between atoms: _55  and  _56
REMARK   22  A    between atoms: _55  and  _58
REMARK   23  A    between atoms: _61  and  _63
REMARK   24  A    between atoms: _63  and  _64
REMARK   25  A    between atoms: _63  and  _66
REMARK   26  A    between atoms: _66  and  _67
REMARK   27  A    between atoms: _70  and  _72
REMARK   28  A    between atoms: _72  and  _73
REMARK   29  A    between atoms: _72  and  _75
REMARK   30  A    between atoms: _75  and  _76
REMARK   31  A    between atoms: _81  and  _82
REMARK   32  A    between atoms: _84  and  _86
REMARK   33  A    between atoms: _86  and  _87
REMARK   34  A    between atoms: _86  and  _89
REMARK   35  A    between atoms: _89  and  _90
REMARK   36  A    between atoms: _90  and  _91
REMARK   37  A    between atoms: _93  and  _95
REMARK   38  A    between atoms: _95  and  _96
REMARK   39  A    between atoms: _95  and  _98
REMARK   40  A    between atoms: _98  and  _99
REMARK   41  A    between atoms: _99  and  _100
REMARK   42  A    between atoms: _103  and  _105
REMARK   43  A    between atoms: _105  and  _106
REMARK   44  A    between atoms: _105  and  _108
REMARK   45  A    between atoms: _111  and  _113
REMARK   46  A    between atoms: _113  and  _114
REMARK   47  A    between atoms: _116  and  _118
REMARK   48  A    between atoms: _118  and  _119
REMARK   49  A    between atoms: _118  and  _121
REMARK   50  A    between atoms: _121  and  _122
REMARK   51  A    between atoms: _128  and  _130
REMARK   52  A    between atoms: _130  and  _131
REMARK   53  A    between atoms: _130  and  _133
REMARK   54  A    between atoms: _136  and  _138
REMARK   55  A    between atoms: _138  and  _139
REMARK   56  A    between atoms: _138  and  _141
REMARK   57  A    between atoms: _141  and  _142
REMARK   58  A    between atoms: _148  and  _150
REMARK   59  A    between atoms: _150  and  _151
REMARK   60  A    between atoms: _150  and  _153
REMARK   61  A    between atoms: _153  and  _154
REMARK   62  A    between atoms: _159  and  _160
REMARK   63  A    between atoms: _162  and  _164
REMARK   64  A    between atoms: _164  and  _165
REMARK   65  A    between atoms: _164  and  _167
REMARK   66  A    between atoms: _167  and  _168
REMARK   67  A    between atoms: _168  and  _169
REMARK   68  A    between atoms: _171  and  _173
REMARK   69  A    between atoms: _173  and  _174
REMARK   70  A    between atoms: _173  and  _176
REMARK   71  A    between atoms: _176  and  _177
REMARK   72  A    between atoms: _182  and  _183
REMARK   73  A    between atoms: _185  and  _187
REMARK   74  A    between atoms: _187  and  _188
REMARK   75  A    between atoms: _187  and  _190
REMARK   76  A    between atoms: _190  and  _191
REMARK   77  A    between atoms: _191  and  _192
REMARK   78  A    between atoms: _192  and  _193
REMARK   79  A    between atoms: _202  and  _204
REMARK   80  A    between atoms: _204  and  _205
REMARK   81  A    between atoms: _204  and  _207
REMARK   82  A    between atoms: _207  and  _208
REMARK   83  A    between atoms: _208  and  _209
REMARK   84  A    between atoms: _212  and  _214
REMARK   85  A    between atoms: _214  and  _215
REMARK   86  A    between atoms: _214  and  _217
REMARK   87  A    between atoms: _217  and  _218
REMARK   88  A    between atoms: _218  and  _219
REMARK   89  A    between atoms: _219  and  _220
REMARK   90  A    between atoms: _220  and  _221
REMARK   91  A    between atoms: _225  and  _227
REMARK   92  A    between atoms: _227  and  _228
REMARK   93  A    between atoms: _231  and  _233
REMARK   94  A    between atoms: _233  and  _234
REMARK   95  A    between atoms: _236  and  _238
REMARK   96  A    between atoms: _238  and  _239
REMARK   97  A    between atoms: _238  and  _241
REMARK   98  A    between atoms: _241  and  _242
REMARK   99  A    between atoms: _247  and  _249
REMARK  100  A    between atoms: _249  and  _250
REMARK  101  A    between atoms: _249  and  _252
REMARK  102  A    between atoms: _252  and  _253
REMARK  103  A    between atoms: _253  and  _254
REMARK  104  A    between atoms: _257  and  _259
REMARK  105  A    between atoms: _259  and  _260
REMARK  106  A    between atoms: _259  and  _262
REMARK  107  A    between atoms: _262  and  _263
REMARK  108  A    between atoms: _263  and  _264
REMARK  109  A    between atoms: _269  and  _271
REMARK  110  A    between atoms: _271  and  _272
REMARK  111  A    between atoms: _271  and  _274
REMARK  112  A    between atoms: _274  and  _275
REMARK  113  A    between atoms: _277  and  _279
REMARK  114  A    between atoms: _279  and  _280
REMARK  115  A    between atoms: _279  and  _282
REMARK  116  A    between atoms: _282  and  _283
REMARK  117  A    between atoms: _289  and  _291
REMARK  118  A    between atoms: _291  and  _292
REMARK  119  A    between atoms: _291  and  _294
REMARK  120  A    between atoms: _294  and  _295
REMARK  121  A    between atoms: _295  and  _296
REMARK  122  A    between atoms: _296  and  _297
REMARK  123  A    between atoms: _306  and  _308
REMARK  124  A    between atoms: _308  and  _309
REMARK  125  A    between atoms: _308  and  _311
REMARK  126  A    between atoms: _314  and  _316
REMARK  127  A    between atoms: _316  and  _317
REMARK  128  A    between atoms: _316  and  _319
REMARK  129  A    between atoms: _319  and  _320
REMARK  130  A    between atoms: _323  and  _325
REMARK  131  A    between atoms: _325  and  _326
REMARK  132  A    between atoms: _325  and  _328
REMARK  133  A    between atoms: _328  and  _329
REMARK  134  A    between atoms: _332  and  _334
REMARK  135  A    between atoms: _334  and  _335
REMARK  136  A    between atoms: _334  and  _337
REMARK  137  A    between atoms: _337  and  _338
REMARK  138  A    between atoms: _338  and  _339
REMARK  139  A    between atoms: _339  and  _340
REMARK  140  A    between atoms: _349  and  _351
REMARK  141  A    between atoms: _351  and  _352
REMARK  142  A    between atoms: _351  and  _354
REMARK  143  A    between atoms: _354  and  _355
REMARK  144  A    between atoms: _358  and  _360
REMARK  145  A    between atoms: _360  and  _361
REMARK  146  A    between atoms: _360  and  _363
REMARK  147  A    between atoms: _363  and  _364
REMARK  148  A    between atoms: _367  and  _369
REMARK  149  A    between atoms: _369  and  _370
REMARK  150  A    between atoms: _369  and  _372
REMARK  151  A    between atoms: _372  and  _373
REMARK  152  A    between atoms: _378  and  _379
REMARK  153  A    between atoms: _381  and  _383
REMARK  154  A    between atoms: _383  and  _384
REMARK  155  A    between atoms: _383  and  _386
REMARK  156  A    between atoms: _386  and  _387
REMARK  157  A    between atoms: _392  and  _393
REMARK  158  A    between atoms: _395  and  _397
REMARK  159  A    between atoms: _397  and  _398
REMARK  160  A    between atoms: _397  and  _400
REMARK  161  A    between atoms: _400  and  _401
REMARK  162  A    between atoms: _404  and  _406
REMARK  163  A    between atoms: _406  and  _407
REMARK  164  A    between atoms: _406  and  _409
REMARK  165  A    between atoms: _409  and  _410
REMARK  166  A    between atoms: _410  and  _411
REMARK  167  A    between atoms: _416  and  _418
REMARK  168  A    between atoms: _418  and  _419
REMARK  169  A    between atoms: _418  and  _421
REMARK  170  A    between atoms: _424  and  _426
REMARK  171  A    between atoms: _426  and  _427
REMARK  172  A    between atoms: _426  and  _429
REMARK  173  A    between atoms: _429  and  _430
REMARK  174  A    between atoms: _433  and  _435
REMARK  175  A    between atoms: _435  and  _436
REMARK  176  A    between atoms: _435  and  _438
REMARK  177  A    between atoms: _438  and  _439
REMARK  178  A    between atoms: _441  and  _443
REMARK  179  A    between atoms: _443  and  _444
REMARK  180  A    between atoms: _446  and  _448
REMARK  181  A    between atoms: _448  and  _449
REMARK  182  A    between atoms: _448  and  _451
REMARK  183  A    between atoms: _451  and  _452
REMARK  184  A    between atoms: _452  and  _753
REMARK  185  A    between atoms: _453  and  _455
REMARK  186  A    between atoms: _455  and  _456
REMARK  187  A    between atoms: _455  and  _458
REMARK  188  A    between atoms: _458  and  _459
REMARK  189  A    between atoms: _464  and  _465
REMARK  190  A    between atoms: _467  and  _469
REMARK  191  A    between atoms: _469  and  _470
REMARK  192  A    between atoms: _469  and  _472
REMARK  193  A    between atoms: _472  and  _473
REMARK  194  A    between atoms: _473  and  _474
REMARK  195  A    between atoms: _479  and  _481
REMARK  196  A    between atoms: _481  and  _482
REMARK  197  A    between atoms: _481  and  _484
REMARK  198  A    between atoms: _484  and  _485
REMARK  199  A    between atoms: _485  and  _486
REMARK  200  A    between atoms: _491  and  _493
REMARK  201  A    between atoms: _493  and  _494
REMARK  202  A    between atoms: _493  and  _496
REMARK  203  A    between atoms: _496  and  _497
REMARK  204  A    between atoms: _502  and  _503
REMARK  205  A    between atoms: _505  and  _507
REMARK  206  A    between atoms: _507  and  _508
REMARK  207  A    between atoms: _511  and  _513
REMARK  208  A    between atoms: _513  and  _514
REMARK  209  A    between atoms: _513  and  _516
REMARK  210  A    between atoms: _516  and  _517
REMARK  211  A    between atoms: _522  and  _523
REMARK  212  A    between atoms: _525  and  _527
REMARK  213  A    between atoms: _527  and  _528
REMARK  214  A    between atoms: _527  and  _530
REMARK  215  A    between atoms: _530  and  _531
REMARK  216  A    between atoms: _536  and  _537
REMARK  217  A    between atoms: _539  and  _541
REMARK  218  A    between atoms: _541  and  _542
REMARK  219  A    between atoms: _541  and  _544
REMARK  220  A    between atoms: _544  and  _545
REMARK  221  A    between atoms: _548  and  _550
REMARK  222  A    between atoms: _550  and  _551
REMARK  223  A    between atoms: _554  and  _556
REMARK  224  A    between atoms: _556  and  _557
REMARK  225  A    between atoms: _560  and  _562
REMARK  226  A    between atoms: _562  and  _563
REMARK  227  A    between atoms: _562  and  _565
REMARK  228  A    between atoms: _565  and  _566
REMARK  229  A    between atoms: _569  and  _571
REMARK  230  A    between atoms: _571  and  _572
REMARK  231  A    between atoms: _571  and  _574
REMARK  232  A    between atoms: _574  and  _575
REMARK  233  A    between atoms: _578  and  _580
REMARK  234  A    between atoms: _580  and  _581
REMARK  235  A    between atoms: _580  and  _583
REMARK  236  A    between atoms: _583  and  _584
REMARK  237  A    between atoms: _587  and  _589
REMARK  238  A    between atoms: _589  and  _590
REMARK  239  A    between atoms: _589  and  _592
REMARK  240  A    between atoms: _592  and  _593
REMARK  241  A    between atoms: _593  and  _594
REMARK  242  A    between atoms: _594  and  _595
REMARK  243  A    between atoms: _595  and  _596
REMARK  244  A    between atoms: _600  and  _602
REMARK  245  A    between atoms: _602  and  _603
REMARK  246  A    between atoms: _602  and  _605
REMARK  247  A    between atoms: _605  and  _606
REMARK  248  A    between atoms: _611  and  _613
REMARK  249  A    between atoms: _613  and  _614
REMARK  250  A    between atoms: _613  and  _616
REMARK  251  A    between atoms: _616  and  _617
REMARK  252  A    between atoms: _617  and  _618
REMARK  253  A    between atoms: _618  and  _619
REMARK  254  A    between atoms: _619  and  _620
REMARK  255  A    between atoms: _624  and  _626
REMARK  256  A    between atoms: _626  and  _627
REMARK  257  A    between atoms: _626  and  _629
REMARK  258  A    between atoms: _629  and  _630
REMARK  259  A    between atoms: _640  and  _642
REMARK  260  A    between atoms: _642  and  _643
REMARK  261  A    between atoms: _646  and  _648
REMARK  262  A    between atoms: _648  and  _649
REMARK  263  A    between atoms: _648  and  _651
REMARK  264  A    between atoms: _651  and  _652
REMARK  265  A    between atoms: _652  and  _653
REMARK  266  A    between atoms: _656  and  _658
REMARK  267  A    between atoms: _658  and  _659
REMARK  268  A    between atoms: _658  and  _661
REMARK  269  A    between atoms: _661  and  _662
REMARK  270  A    between atoms: _662  and  _663
REMARK  271  A    between atoms: _666  and  _668
REMARK  272  A    between atoms: _668  and  _669
REMARK  273  A    between atoms: _668  and  _671
REMARK  274  A    between atoms: _671  and  _672
REMARK  275  A    between atoms: _672  and  _673
REMARK  276  A    between atoms: _673  and  _674
REMARK  277  A    between atoms: _683  and  _685
REMARK  278  A    between atoms: _685  and  _686
REMARK  279  A    between atoms: _685  and  _688
REMARK  280  A    between atoms: _688  and  _689
REMARK  281  A    between atoms: _692  and  _694
REMARK  282  A    between atoms: _694  and  _695
REMARK  283  A    between atoms: _694  and  _697
REMARK  284  A    between atoms: _697  and  _698
REMARK  285  A    between atoms: _698  and  _699
REMARK  286  A    between atoms: _699  and  _700
REMARK  287  A    between atoms: _709  and  _711
REMARK  288  A    between atoms: _711  and  _712
REMARK  289  A    between atoms: _715  and  _717
REMARK  290  A    between atoms: _717  and  _718
REMARK  291  A    between atoms: _717  and  _720
REMARK  292  A    between atoms: _720  and  _721
REMARK  293  A    between atoms: _726  and  _727
REMARK  294  A    between atoms: _729  and  _731
REMARK  295  A    between atoms: _731  and  _732
REMARK  296  A    between atoms: _731  and  _734
REMARK  297  A    between atoms: _734  and  _735
REMARK  298  A    between atoms: _738  and  _740
REMARK  299  A    between atoms: _740  and  _741
REMARK  300  A    between atoms: _740  and  _743
REMARK  301  A    between atoms: _743  and  _744
REMARK  302  A    between atoms: _747  and  _749
REMARK  303  A    between atoms: _749  and  _750
REMARK  304  A    between atoms: _749  and  _752
REMARK  305  A    between atoms: _752  and  _753
REMARK  306  A    between atoms: _754  and  _756
REMARK  307  A    between atoms: _756  and  _757
REMARK  308  A    between atoms: _756  and  _759
REMARK  309  A    between atoms: _762  and  _764
REMARK  310  A    between atoms: _764  and  _765
REMARK  311  A    between atoms: _764  and  _767
REMARK  312  A    between atoms: _767  and  _768
REMARK  313  A    between atoms: _768  and  _769
REMARK  314  A    between atoms: _772  and  _774
REMARK  315  A    between atoms: _774  and  _775
REMARK  316  A    between atoms: _774  and  _777
REMARK  317  A    between atoms: _777  and  _778
REMARK  318  A    between atoms: _788  and  _790
REMARK  319  A    between atoms: _790  and  _791
REMARK  320  A    between atoms: _790  and  _793
REMARK  321  A    between atoms: _793  and  _794
REMARK  322  A    between atoms: _797  and  _799
REMARK  323  A    between atoms: _799  and  _800
REMARK  324  A    between atoms: _799  and  _802
REMARK  325  A    between atoms: _802  and  _803
REMARK  326  A    between atoms: _808  and  _809
REMARK                            x       y       z     vdW  Elec       q    Type
REMARK                         _______ _______ _______ _____ _____    ______ ____
ROOT
ATOM      1  CA  TYR A   3       6.740   2.109  -9.459  0.00  0.00    +0.153 C 
ENDROOT
BRANCH   1   3
ATOM      2  C   ARG A   2       8.588   1.300  -8.076  0.00  0.00    +0.241 C 
ATOM      3  N   TYR A   3       7.587   2.149  -8.273  0.00  0.00    -0.297 N 
ATOM      4  H   TYR A   3       7.399   2.873  -7.551  0.00  0.00    +0.150 HD
ATOM      5  O   ARG A   2       8.836   0.351  -8.823  0.00  0.00    -0.273 OA
BRANCH   2   6
ATOM      6  CA  ARG A   2       9.446   1.568  -6.845  0.00  0.00    +0.149 C 
BRANCH   6   9
ATOM      7  C   LEU A   1       9.601   0.282  -4.801  0.00  0.00    +0.238 C 
ATOM      8  O   LEU A   1       9.206   1.235  -4.124  0.00  0.00    -0.274 OA
ATOM      9  N   ARG A   2       9.749   0.342  -6.116  0.00  0.00    -0.297 N 
ATOM     10  H   ARG A   2      10.085  -0.495  -6.634  0.00  0.00    +0.150 HD
BRANCH   7  11
ATOM     11  CA  LEU A   1       9.970  -1.023  -4.140  0.00  0.00    +0.145 C 
BRANCH  11  12
ATOM     12  N   LEU A   1      11.101  -0.721  -3.293  0.00  0.00    -0.238 NA
ATOM     13  H   LEU A   1      10.993   0.014  -2.565  0.00  0.00    +0.142 HD
ENDBRANCH  11  12
BRANCH  11  14
ATOM     14  CB  LEU A   1       8.811  -1.502  -3.286  0.00  0.00    +0.026 C 
BRANCH  14  15
ATOM     15  CG  LEU A   1       7.443  -1.664  -3.930  0.00  0.00    +0.002 C 
ATOM     16  CD2 LEU A   1       6.488  -2.212  -2.877  0.00  0.00    +0.000 C 
ATOM     17  CD1 LEU A   1       7.539  -2.575  -5.138  0.00  0.00    +0.000 C 
ENDBRANCH  14  15
ENDBRANCH  11  14
ENDBRANCH   7  11
ENDBRANCH   6   9
BRANCH   6  18
ATOM     18  CB  ARG A   2      10.740   2.257  -7.273  0.00  0.00    +0.033 C 
BRANCH  18  19
ATOM     19  CG  ARG A   2      11.745   2.408  -6.142  0.00  0.00    +0.045 C 
BRANCH  19  20
ATOM     20  CD  ARG A   2      12.388   3.772  -6.152  0.00  0.00    +0.174 C 
BRANCH  20  21
ATOM     21  NE  ARG A   2      13.197   4.022  -7.343  0.00  0.00    -0.265 N 
ATOM     22  CZ  ARG A   2      13.714   5.216  -7.633  0.00  0.00    +0.342 C 
ATOM     23  NH2 ARG A   2      13.495   6.242  -6.820  0.00  0.00    -0.292 N 
ATOM     24 HH21 ARG A   2      12.922   6.112  -5.962  0.00  0.00    +0.255 HD
ATOM     25 HH22 ARG A   2      13.896   7.176  -7.041  0.00  0.00    +0.255 HD
ATOM     26  NH1 ARG A   2      14.445   5.394  -8.726  0.00  0.00    -0.292 N 
ATOM     27 HH11 ARG A   2      14.842   6.331  -8.939  0.00  0.00    +0.255 HD
ATOM     28 HH12 ARG A   2      14.621   4.596  -9.369  0.00  0.00    +0.255 HD
ATOM     29  HE  ARG A   2      13.378   3.232  -7.995  0.00  0.00    +0.259 HD
ENDBRANCH  20  21
ENDBRANCH  19  20
ENDBRANCH  18  19
ENDBRANCH   6  18
ENDBRANCH   2   6
ENDBRANCH   1   3
BRANCH   1  30
ATOM     30  C   TYR A   3       6.969   3.323 -10.360  0.00  0.00    +0.241 C 
ATOM     31  O   TYR A   3       6.983   4.473  -9.903  0.00  0.00    -0.273 OA
ATOM     32  N   PHE A   4       7.144   3.037 -11.642  0.00  0.00    -0.297 N 
ATOM     33  H   PHE A   4       7.120   2.038 -11.931  0.00  0.00    +0.150 HD
BRANCH  32  34
ATOM     34  CA  PHE A   4       7.368   4.044 -12.665  0.00  0.00    +0.153 C 
BRANCH  34  35
ATOM     35  C   PHE A   4       6.117   4.087 -13.525  0.00  0.00    +0.241 C 
ATOM     36  N   VAL A   5       5.458   5.243 -13.549  0.00  0.00    -0.297 N 
ATOM     37  H   VAL A   5       5.874   6.072 -13.078  0.00  0.00    +0.150 HD
ATOM     38  O   PHE A   4       5.743   3.081 -14.145  0.00  0.00    -0.273 OA
BRANCH  36  39
ATOM     39  CA  VAL A   5       4.165   5.380 -14.220  0.00  0.00    +0.149 C 
BRANCH  39  40
ATOM     40  C   VAL A   5       4.277   6.330 -15.408  0.00  0.00    +0.241 C 
ATOM     41  O   VAL A   5       4.885   7.387 -15.295  0.00  0.00    -0.273 OA
ATOM     42  N   THR A   6       3.680   5.949 -16.536  0.00  0.00    -0.296 N 
ATOM     43  H   THR A   6       3.208   5.023 -16.569  0.00  0.00    +0.150 HD
BRANCH  42  44
ATOM     44  CA  THR A   6       3.668   6.795 -17.729  0.00  0.00    +0.164 C 
BRANCH  44  45
ATOM     45  CB  THR A   6       4.601   6.228 -18.807  0.00  0.00    +0.136 C 
ATOM     46  CG2 THR A   6       4.649   7.167 -20.018  0.00  0.00    +0.034 C 
BRANCH  45  47
ATOM     47  OG1 THR A   6       5.921   6.073 -18.258  0.00  0.00    -0.382 OA
ATOM     48  HG1 THR A   6       5.886   5.451 -17.488  0.00  0.00    +0.210 HD
ENDBRANCH  45  47
ENDBRANCH  44  45
BRANCH  44  49
ATOM     49  C   THR A   6       2.269   6.948 -18.329  0.00  0.00    +0.229 C 
ATOM     50  O   THR A   6       1.555   5.963 -18.536  0.00  0.00    -0.286 OA
ENDBRANCH  44  49
ENDBRANCH  42  44
ENDBRANCH  39  40
BRANCH  39  51
ATOM     51  CB  VAL A   5       3.099   5.926 -13.256  0.00  0.00    +0.027 C 
ATOM     52  CG2 VAL A   5       2.907   4.966 -12.088  0.00  0.00    +0.002 C 
ATOM     53  CG1 VAL A   5       1.783   6.150 -13.977  0.00  0.00    +0.002 C 
ENDBRANCH  39  51
ENDBRANCH  36  39
ENDBRANCH  34  35
BRANCH  34  54
ATOM     54  CB  PHE A   4       8.600   3.672 -13.513  0.00  0.00    +0.055 C 
BRANCH  54  55
ATOM     55  CG  PHE A   4       9.917   3.969 -12.841  0.00  0.00    -0.020 A 
ATOM     56  CD2 PHE A   4      10.177   3.520 -11.549  0.00  0.00    -0.004 A 
ATOM     57  CE2 PHE A   4      11.397   3.787 -10.929  0.00  0.00    -0.000 A 
ATOM     58  CZ  PHE A   4      12.369   4.500 -11.606  0.00  0.00    -0.000 A 
ATOM     59  CE1 PHE A   4      12.123   4.938 -12.905  0.00  0.00    -0.000 A 
ATOM     60  CD1 PHE A   4      10.903   4.673 -13.509  0.00  0.00    -0.004 A 
ENDBRANCH  54  55
ENDBRANCH  34  54
ENDBRANCH  32  34
ENDBRANCH   1  30
BRANCH   1  61
ATOM     61  CB  TYR A   3       5.267   2.010  -9.067  0.00  0.00    +0.055 C 
BRANCH  61  62
ATOM     62  CG  TYR A   3       4.957   0.698  -8.402  0.00  0.00    -0.020 A 
ATOM     63  CD2 TYR A   3       5.056   0.556  -7.024  0.00  0.00    -0.001 A 
ATOM     64  CE2 TYR A   3       4.798  -0.654  -6.414  0.00  0.00    +0.036 A 
ATOM     65  CZ  TYR A   3       4.452  -1.743  -7.185  0.00  0.00    +0.134 A 
ATOM     66  CE1 TYR A   3       4.355  -1.630  -8.557  0.00  0.00    +0.036 A 
ATOM     67  CD1 TYR A   3       4.613  -0.419  -9.158  0.00  0.00    -0.001 A 
BRANCH  65  68
ATOM     68  OH  TYR A   3       4.202  -2.948  -6.588  0.00  0.00    -0.506 OA
ATOM     69  HH  TYR A   3       3.275  -3.230  -6.791  0.00  0.00    +0.292 HD
ENDBRANCH  65  68
ENDBRANCH  61  62
ENDBRANCH   1  61
TORSDOF 26
REMARK  Name = ../refined-set-2016/3p9m/3p9m_pocket.pdb
REMARK  326 active torsions:
REMARK  status: ('A' for Active; 'I' for Inactive)
REMARK    1  A    between atoms: _1  and  _3
REMARK    2  A    between atoms: _3  and  _4
REMARK    3  A    between atoms: _3  and  _6
REMARK    4  A    between atoms: _6  and  _7
REMARK    5  A    between atoms: _10  and  _12
REMARK    6  A    between atoms: _12  and  _13
REMARK    7  A    between atoms: _12  and  _15
REMARK    8  A    between atoms: _15  and  _16
REMARK    9  A    between atoms: _16  and  _17
REMARK   10  A    between atoms: _17  and  _18
REMARK   11  A    between atoms: _27  and  _29
REMARK   12  A    between atoms: _29  and  _30
REMARK   13  A    between atoms: _29  and  _32
REMARK   14  A    between atoms: _32  and  _33
REMARK   15  A    between atoms: _38  and  _39
REMARK   16  A    between atoms: _41  and  _43
REMARK   17  A    between atoms: _43  and  _44
REMARK   18  A    between atoms: _43  and  _46
REMARK   19  A    between atoms: _46  and  _47
REMARK   20  A    between atoms: _53  and  _55
REMARK   21  A    between atoms: _55  and  _56
REMARK   22  A    between atoms: _55  and  _58
REMARK   23  A    between atoms: _61  and  _63
REMARK   24  A    between atoms: _63  and  _64
REMARK   25  A    between atoms: _63  and  _66
REMARK   26  A    between atoms: _66  and  _67
REMARK   27  A    between atoms: _70  and  _72
REMARK   28  A    between atoms: _72  and  _73
REMARK   29  A    between atoms: _72  and  _75
REMARK   30  A    between atoms: _75  and  _76
REMARK   31  A    between atoms: _81  and  _82
REMARK   32  A    between atoms: _84  and  _86
REMARK   33  A    between atoms: _86  and  _87
REMARK   34  A    between atoms: _86  and  _89
REMARK   35  A    between atoms: _89  and  _90
REMARK   36  A    between atoms: _90  and  _91
REMARK   37  A    between atoms: _93  and  _95
REMARK   38  A    between atoms: _95  and  _96
REMARK   39  A    between atoms: _95  and  _98
REMARK   40  A    between atoms: _98  and  _99
REMARK   41  A    between atoms: _99  and  _100
REMARK   42  A    between atoms: _103  and  _105
REMARK   43  A    between atoms: _105  and  _106
REMARK   44  A    between atoms: _105  and  _108
REMARK   45  A    between atoms: _111  and  _113
REMARK   46  A    between atoms: _113  and  _114
REMARK   47  A    between atoms: _116  and  _118
REMARK   48  A    between atoms: _118  and  _119
REMARK   49  A    between atoms: _118  and  _121
REMARK   50  A    between atoms: _121  and  _122
REMARK   51  A    between atoms: _128  and  _130
REMARK   52  A    between atoms: _130  and  _131
REMARK   53  A    between atoms: _130  and  _133
REMARK   54  A    between atoms: _136  and  _138
REMARK   55  A    between atoms: _138  and  _139
REMARK   56  A    between atoms: _138  and  _141
REMARK   57  A    between atoms: _141  and  _142
REMARK   58  A    between atoms: _148  and  _150
REMARK   59  A    between atoms: _150  and  _151
REMARK   60  A    between atoms: _150  and  _153
REMARK   61  A    between atoms: _153  and  _154
REMARK   62  A    between atoms: _159  and  _160
REMARK   63  A    between atoms: _162  and  _164
REMARK   64  A    between atoms: _164  and  _165
REMARK   65  A    between atoms: _164  and  _167
REMARK   66  A    between atoms: _167  and  _168
REMARK   67  A    between atoms: _168  and  _169
REMARK   68  A    between atoms: _171  and  _173
REMARK   69  A    between atoms: _173  and  _174
REMARK   70  A    between atoms: _173  and  _176
REMARK   71  A    between atoms: _176  and  _177
REMARK   72  A    between atoms: _182  and  _183
REMARK   73  A    between atoms: _185  and  _187
REMARK   74  A    between atoms: _187  and  _188
REMARK   75  A    between atoms: _187  and  _190
REMARK   76  A    between atoms: _190  and  _191
REMARK   77  A    between atoms: _191  and  _192
REMARK   78  A    between atoms: _192  and  _193
REMARK   79  A    between atoms: _202  and  _204
REMARK   80  A    between atoms: _204  and  _205
REMARK   81  A    between atoms: _204  and  _207
REMARK   82  A    between atoms: _207  and  _208
REMARK   83  A    between atoms: _208  and  _209
REMARK   84  A    between atoms: _212  and  _214
REMARK   85  A    between atoms: _214  and  _215
REMARK   86  A    between atoms: _214  and  _217
REMARK   87  A    between atoms: _217  and  _218
REMARK   88  A    between atoms: _218  and  _219
REMARK   89  A    between atoms: _219  and  _220
REMARK   90  A    between atoms: _220  and  _221
REMARK   91  A    between atoms: _225  and  _227
REMARK   92  A    between atoms: _227  and  _228
REMARK   93  A    between atoms: _231  and  _233
REMARK   94  A    between atoms: _233  and  _234
REMARK   95  A    between atoms: _236  and  _238
REMARK   96  A    between atoms: _238  and  _239
REMARK   97  A    between atoms: _238  and  _241
REMARK   98  A    between atoms: _241  and  _242
REMARK   99  A    between atoms: _247  and  _249
REMARK  100  A    between atoms: _249  and  _250
REMARK  101  A    between atoms: _249  and  _252
REMARK  102  A    between atoms: _252  and  _253
REMARK  103  A    between atoms: _253  and  _254
REMARK  104  A    between atoms: _257  and  _259
REMARK  105  A    between atoms: _259  and  _260
REMARK  106  A    between atoms: _259  and  _262
REMARK  107  A    between atoms: _262  and  _263
REMARK  108  A    between atoms: _263  and  _264
REMARK  109  A    between atoms: _269  and  _271
REMARK  110  A    between atoms: _271  and  _272
REMARK  111  A    between atoms: _271  and  _274
REMARK  112  A    between atoms: _274  and  _275
REMARK  113  A    between atoms: _277  and  _279
REMARK  114  A    between atoms: _279  and  _280
REMARK  115  A    between atoms: _279  and  _282
REMARK  116  A    between atoms: _282  and  _283
REMARK  117  A    between atoms: _289  and  _291
REMARK  118  A    between atoms: _291  and  _292
REMARK  119  A    between atoms: _291  and  _294
REMARK  120  A    between atoms: _294  and  _295
REMARK  121  A    between atoms: _295  and  _296
REMARK  122  A    between atoms: _296  and  _297
REMARK  123  A    between atoms: _306  and  _308
REMARK  124  A    between atoms: _308  and  _309
REMARK  125  A    between atoms: _308  and  _311
REMARK  126  A    between atoms: _314  and  _316
REMARK  127  A    between atoms: _316  and  _317
REMARK  128  A    between atoms: _316  and  _319
REMARK  129  A    between atoms: _319  and  _320
REMARK  130  A    between atoms: _323  and  _325
REMARK  131  A    between atoms: _325  and  _326
REMARK  132  A    between atoms: _325  and  _328
REMARK  133  A    between atoms: _328  and  _329
REMARK  134  A    between atoms: _332  and  _334
REMARK  135  A    between atoms: _334  and  _335
REMARK  136  A    between atoms: _334  and  _337
REMARK  137  A    between atoms: _337  and  _338
REMARK  138  A    between atoms: _338  and  _339
REMARK  139  A    between atoms: _339  and  _340
REMARK  140  A    between atoms: _349  and  _351
REMARK  141  A    between atoms: _351  and  _352
REMARK  142  A    between atoms: _351  and  _354
REMARK  143  A    between atoms: _354  and  _355
REMARK  144  A    between atoms: _358  and  _360
REMARK  145  A    between atoms: _360  and  _361
REMARK  146  A    between atoms: _360  and  _363
REMARK  147  A    between atoms: _363  and  _364
REMARK  148  A    between atoms: _367  and  _369
REMARK  149  A    between atoms: _369  and  _370
REMARK  150  A    between atoms: _369  and  _372
REMARK  151  A    between atoms: _372  and  _373
REMARK  152  A    between atoms: _378  and  _379
REMARK  153  A    between atoms: _381  and  _383
REMARK  154  A    between atoms: _383  and  _384
REMARK  155  A    between atoms: _383  and  _386
REMARK  156  A    between atoms: _386  and  _387
REMARK  157  A    between atoms: _392  and  _393
REMARK  158  A    between atoms: _395  and  _397
REMARK  159  A    between atoms: _397  and  _398
REMARK  160  A    between atoms: _397  and  _400
REMARK  161  A    between atoms: _400  and  _401
REMARK  162  A    between atoms: _404  and  _406
REMARK  163  A    between atoms: _406  and  _407
REMARK  164  A    between atoms: _406  and  _409
REMARK  165  A    between atoms: _409  and  _410
REMARK  166  A    between atoms: _410  and  _411
REMARK  167  A    between atoms: _416  and  _418
REMARK  168  A    between atoms: _418  and  _419
REMARK  169  A    between atoms: _418  and  _421
REMARK  170  A    between atoms: _424  and  _426
REMARK  171  A    between atoms: _426  and  _427
REMARK  172  A    between atoms: _426  and  _429
REMARK  173  A    between atoms: _429  and  _430
REMARK  174  A    between atoms: _433  and  _435
REMARK  175  A    between atoms: _435  and  _436
REMARK  176  A    between atoms: _435  and  _438
REMARK  177  A    between atoms: _438  and  _439
REMARK  178  A    between atoms: _441  and  _443
REMARK  179  A    between atoms: _443  and  _444
REMARK  180  A    between atoms: _446  and  _448
REMARK  181  A    between atoms: _448  and  _449
REMARK  182  A    between atoms: _448  and  _451
REMARK  183  A    between atoms: _451  and  _452
REMARK  184  A    between atoms: _452  and  _753
REMARK  185  A    between atoms: _453  and  _455
REMARK  186  A    between atoms: _455  and  _456
REMARK  187  A    between atoms: _455  and  _458
REMARK  188  A    between atoms: _458  and  _459
REMARK  189  A    between atoms: _464  and  _465
REMARK  190  A    between atoms: _467  and  _469
REMARK  191  A    between atoms: _469  and  _470
REMARK  192  A    between atoms: _469  and  _472
REMARK  193  A    between atoms: _472  and  _473
REMARK  194  A    between atoms: _473  and  _474
REMARK  195  A    between atoms: _479  and  _481
REMARK  196  A    between atoms: _481  and  _482
REMARK  197  A    between atoms: _481  and  _484
REMARK  198  A    between atoms: _484  and  _485
REMARK  199  A    between atoms: _485  and  _486
REMARK  200  A    between atoms: _491  and  _493
REMARK  201  A    between atoms: _493  and  _494
REMARK  202  A    between atoms: _493  and  _496
REMARK  203  A    between atoms: _496  and  _497
REMARK  204  A    between atoms: _502  and  _503
REMARK  205  A    between atoms: _505  and  _507
REMARK  206  A    between atoms: _507  and  _508
REMARK  207  A    between atoms: _511  and  _513
REMARK  208  A    between atoms: _513  and  _514
REMARK  209  A    between atoms: _513  and  _516
REMARK  210  A    between atoms: _516  and  _517
REMARK  211  A    between atoms: _522  and  _523
REMARK  212  A    between atoms: _525  and  _527
REMARK  213  A    between atoms: _527  and  _528
REMARK  214  A    between atoms: _527  and  _530
REMARK  215  A    between atoms: _530  and  _531
REMARK  216  A    between atoms: _536  and  _537
REMARK  217  A    between atoms: _539  and  _541
REMARK  218  A    between atoms: _541  and  _542
REMARK  219  A    between atoms: _541  and  _544
REMARK  220  A    between atoms: _544  and  _545
REMARK  221  A    between atoms: _548  and  _550
REMARK  222  A    between atoms: _550  and  _551
REMARK  223  A    between atoms: _554  and  _556
REMARK  224  A    between atoms: _556  and  _557
REMARK  225  A    between atoms: _560  and  _562
REMARK  226  A    between atoms: _562  and  _563
REMARK  227  A    between atoms: _562  and  _565
REMARK  228  A    between atoms: _565  and  _566
REMARK  229  A    between atoms: _569  and  _571
REMARK  230  A    between atoms: _571  and  _572
REMARK  231  A    between atoms: _571  and  _574
REMARK  232  A    between atoms: _574  and  _575
REMARK  233  A    between atoms: _578  and  _580
REMARK  234  A    between atoms: _580  and  _581
REMARK  235  A    between atoms: _580  and  _583
REMARK  236  A    between atoms: _583  and  _584
REMARK  237  A    between atoms: _587  and  _589
REMARK  238  A    between atoms: _589  and  _590
REMARK  239  A    between atoms: _589  and  _592
REMARK  240  A    between atoms: _592  and  _593
REMARK  241  A    between atoms: _593  and  _594
REMARK  242  A    between atoms: _594  and  _595
REMARK  243  A    between atoms: _595  and  _596
REMARK  244  A    between atoms: _600  and  _602
REMARK  245  A    between atoms: _602  and  _603
REMARK  246  A    between atoms: _602  and  _605
REMARK  247  A    between atoms: _605  and  _606
REMARK  248  A    between atoms: _611  and  _613
REMARK  249  A    between atoms: _613  and  _614
REMARK  250  A    between atoms: _613  and  _616
REMARK  251  A    between atoms: _616  and  _617
REMARK  252  A    between atoms: _617  and  _618
REMARK  253  A    between atoms: _618  and  _619
REMARK  254  A    between atoms: _619  and  _620
REMARK  255  A    between atoms: _624  and  _626
REMARK  256  A    between atoms: _626  and  _627
REMARK  257  A    between atoms: _626  and  _629
REMARK  258  A    between atoms: _629  and  _630
REMARK  259  A    between atoms: _640  and  _642
REMARK  260  A    between atoms: _642  and  _643
REMARK  261  A    between atoms: _646  and  _648
REMARK  262  A    between atoms: _648  and  _649
REMARK  263  A    between atoms: _648  and  _651
REMARK  264  A    between atoms: _651  and  _652
REMARK  265  A    between atoms: _652  and  _653
REMARK  266  A    between atoms: _656  and  _658
REMARK  267  A    between atoms: _658  and  _659
REMARK  268  A    between atoms: _658  and  _661
REMARK  269  A    between atoms: _661  and  _662
REMARK  270  A    between atoms: _662  and  _663
REMARK  271  A    between atoms: _666  and  _668
REMARK  272  A    between atoms: _668  and  _669
REMARK  273  A    between atoms: _668  and  _671
REMARK  274  A    between atoms: _671  and  _672
REMARK  275  A    between atoms: _672  and  _673
REMARK  276  A    between atoms: _673  and  _674
REMARK  277  A    between atoms: _683  and  _685
REMARK  278  A    between atoms: _685  and  _686
REMARK  279  A    between atoms: _685  and  _688
REMARK  280  A    between atoms: _688  and  _689
REMARK  281  A    between atoms: _692  and  _694
REMARK  282  A    between atoms: _694  and  _695
REMARK  283  A    between atoms: _694  and  _697
REMARK  284  A    between atoms: _697  and  _698
REMARK  285  A    between atoms: _698  and  _699
REMARK  286  A    between atoms: _699  and  _700
REMARK  287  A    between atoms: _709  and  _711
REMARK  288  A    between atoms: _711  and  _712
REMARK  289  A    between atoms: _715  and  _717
REMARK  290  A    between atoms: _717  and  _718
REMARK  291  A    between atoms: _717  and  _720
REMARK  292  A    between atoms: _720  and  _721
REMARK  293  A    between atoms: _726  and  _727
REMARK  294  A    between atoms: _729  and  _731
REMARK  295  A    between atoms: _731  and  _732
REMARK  296  A    between atoms: _731  and  _734
REMARK  297  A    between atoms: _734  and  _735
REMARK  298  A    between atoms: _738  and  _740
REMARK  299  A    between atoms: _740  and  _741
REMARK  300  A    between atoms: _740  and  _743
REMARK  301  A    between atoms: _743  and  _744
REMARK  302  A    between atoms: _747  and  _749
REMARK  303  A    between atoms: _749  and  _750
REMARK  304  A    between atoms: _749  and  _752
REMARK  305  A    between atoms: _752  and  _753
REMARK  306  A    between atoms: _754  and  _756
REMARK  307  A    between atoms: _756  and  _757
REMARK  308  A    between atoms: _756  and  _759
REMARK  309  A    between atoms: _762  and  _764
REMARK  310  A    between atoms: _764  and  _765
REMARK  311  A    between atoms: _764  and  _767
REMARK  312  A    between atoms: _767  and  _768
REMARK  313  A    between atoms: _768  and  _769
REMARK  314  A    between atoms: _772  and  _774
REMARK  315  A    between atoms: _774  and  _775
REMARK  316  A    between atoms: _774  and  _777
REMARK  317  A    between atoms: _777  and  _778
REMARK  318  A    between atoms: _788  and  _790
REMARK  319  A    between atoms: _790  and  _791
REMARK  320  A    between atoms: _790  and  _793
REMARK  321  A    between atoms: _793  and  _794
REMARK  322  A    between atoms: _797  and  _799
REMARK  323  A    between atoms: _799  and  _800
REMARK  324  A    between atoms: _799  and  _802
REMARK  325  A    between atoms: _802  and  _803
REMARK  326  A    between atoms: _808  and  _809
REMARK                            x       y       z     vdW  Elec       q    Type
REMARK                         _______ _______ _______ _____ _____    ______ ____
ROOT
ATOM      1  C   MET A   2       2.108   2.288 -16.627  0.00  0.00    +0.241 C 
ATOM      2  N   GLU A   3       2.074   1.172 -15.900  0.00  0.00    -0.297 N 
ATOM      3  H   GLU A   3       1.615   0.330 -16.303  0.00  0.00    +0.150 HD
ATOM      4  O   MET A   2       2.427   3.379 -16.169  0.00  0.00    -0.273 OA
ENDROOT
BRANCH   2   5
ATOM      5  CA  GLU A   3       2.654   1.078 -14.559  0.00  0.00    +0.149 C 
BRANCH   5   6
ATOM      6  C   GLU A   3       3.712  -0.008 -14.606  0.00  0.00    +0.241 C 
ATOM      7  N   VAL A   4       4.923   0.310 -14.144  0.00  0.00    -0.297 N 
ATOM      8  H   VAL A   4       5.086   1.269 -13.775  0.00  0.00    +0.150 HD
ATOM      9  O   GLU A   3       3.441  -1.108 -15.087  0.00  0.00    -0.273 OA
BRANCH   7  10
ATOM     10  CA  VAL A   4       6.029  -0.649 -14.141  0.00  0.00    +0.149 C 
BRANCH  10  11
ATOM     11  C   VAL A   4       6.615  -0.670 -12.734  0.00  0.00    +0.241 C 
ATOM     12  N   GLY A   5       6.650  -1.858 -12.137  0.00  0.00    -0.296 N 
ATOM     13  H   GLY A   5       6.302  -2.695 -12.646  0.00  0.00    +0.150 HD
ATOM     14  O   VAL A   4       7.010   0.376 -12.193  0.00  0.00    -0.273 OA
BRANCH  12  15
ATOM     15  CA  GLY A   5       7.165  -2.007 -10.790  0.00  0.00    +0.163 C 
BRANCH  15  16
ATOM     16  C   GLY A   5       8.546  -2.617 -10.716  0.00  0.00    +0.229 C 
ATOM     17  O   GLY A   5       8.867  -3.550 -11.453  0.00  0.00    -0.286 OA
ENDBRANCH  15  16
ENDBRANCH  12  15
ENDBRANCH  10  11
BRANCH  10  18
ATOM     18  CB  VAL A   4       7.156  -0.290 -15.153  0.00  0.00    +0.027 C 
ATOM     19  CG2 VAL A   4       8.194  -1.393 -15.185  0.00  0.00    +0.002 C 
ATOM     20  CG1 VAL A   4       6.595  -0.083 -16.549  0.00  0.00    +0.002 C 
ENDBRANCH  10  18
ENDBRANCH   7  10
ENDBRANCH   5   6
BRANCH   5  21
ATOM     21  CB  GLU A   3       1.580   0.728 -13.493  0.00  0.00    +0.041 C 
BRANCH  21  22
ATOM     22  CG  GLU A   3       0.537   1.816 -13.313  0.00  0.00    +0.116 C 
BRANCH  22  23
ATOM     23  CD  GLU A   3      -0.530   1.475 -12.277  0.00  0.00    +0.365 C 
ATOM     24  OE2 GLU A   3      -0.465   0.381 -11.665  0.00  0.00    -0.246 OA
ATOM     25  OE1 GLU A   3      -1.431   2.319 -12.072  0.00  0.00    -0.246 OA
ENDBRANCH  22  23
ENDBRANCH  21  22
ENDBRANCH   5  21
ENDBRANCH   2   5
BRANCH   1  26
ATOM     26  CA  MET A   2       1.694   2.160 -18.088  0.00  0.00    +0.149 C 
BRANCH  26  28
ATOM     27  C   TYR A   1      -0.204   3.044 -19.296  0.00  0.00    +0.239 C 
ATOM     28  N   MET A   2       0.831   3.256 -18.491  0.00  0.00    -0.297 N 
ATOM     29  H   MET A   2       1.025   4.217 -18.146  0.00  0.00    +0.150 HD
ATOM     30  O   TYR A   1      -0.523   1.919 -19.719  0.00  0.00    -0.274 OA
BRANCH  27  31
ATOM     31  CA  TYR A   1      -1.009   4.272 -19.661  0.00  0.00    +0.149 C 
BRANCH  31  32
ATOM     32  N   TYR A   1      -1.337   4.240 -21.074  0.00  0.00    -0.238 NA
ATOM     33  H   TYR A   1      -1.919   3.463 -21.447  0.00  0.00    +0.142 HD
ENDBRANCH  31  32
BRANCH  31  34
ATOM     34  CB  TYR A   1      -2.283   4.341 -18.811  0.00  0.00    +0.053 C 
BRANCH  34  35
ATOM     35  CG  TYR A   1      -2.030   4.417 -17.323  0.00  0.00    -0.020 A 
ATOM     36  CD2 TYR A   1      -2.272   3.322 -16.499  0.00  0.00    -0.001 A 
ATOM     37  CE2 TYR A   1      -2.030   3.383 -15.143  0.00  0.00    +0.036 A 
ATOM     38  CZ  TYR A   1      -1.554   4.546 -14.593  0.00  0.00    +0.134 A 
ATOM     39  CE1 TYR A   1      -1.310   5.654 -15.385  0.00  0.00    +0.036 A 
ATOM     40  CD1 TYR A   1      -1.556   5.589 -16.736  0.00  0.00    -0.001 A 
BRANCH  38  41
ATOM     41  OH  TYR A   1      -1.316   4.612 -13.245  0.00  0.00    -0.506 OA
ATOM     42  HH  TYR A   1      -0.641   3.932 -12.997  0.00  0.00    +0.292 HD
ENDBRANCH  38  41
ENDBRANCH  34  35
ENDBRANCH  31  34
ENDBRANCH  27  31
ENDBRANCH  26  28
BRANCH  26  43
ATOM     43  CB  MET A   2       2.934   2.143 -18.987  0.00  0.00    +0.041 C 
BRANCH  43  44
ATOM     44  CG  MET A   2       3.776   0.908 -18.848  0.00  0.00    +0.060 C 
BRANCH  44  45
ATOM     45  SD  MET A   2       3.696   0.012 -20.400  0.00  0.00    -0.139 S 
ATOM     46  CE  MET A   2       4.436   1.254 -21.476  0.00  0.00    +0.069 C 
ENDBRANCH  44  45
ENDBRANCH  43  44
ENDBRANCH  26  43
ENDBRANCH   1  26
TORSDOF 20
REMARK  Name = ../refined-set-2016/3p9m/3p9m_pocket.pdb
REMARK  326 active torsions:
REMARK  status: ('A' for Active; 'I' for Inactive)
REMARK    1  A    between atoms: _1  and  _3
REMARK    2  A    between atoms: _3  and  _4
REMARK    3  A    between atoms: _3  and  _6
REMARK    4  A    between atoms: _6  and  _7
REMARK    5  A    between atoms: _10  and  _12
REMARK    6  A    between atoms: _12  and  _13
REMARK    7  A    between atoms: _12  and  _15
REMARK    8  A    between atoms: _15  and  _16
REMARK    9  A    between atoms: _16  and  _17
REMARK   10  A    between atoms: _17  and  _18
REMARK   11  A    between atoms: _27  and  _29
REMARK   12  A    between atoms: _29  and  _30
REMARK   13  A    between atoms: _29  and  _32
REMARK   14  A    between atoms: _32  and  _33
REMARK   15  A    between atoms: _38  and  _39
REMARK   16  A    between atoms: _41  and  _43
REMARK   17  A    between atoms: _43  and  _44
REMARK   18  A    between atoms: _43  and  _46
REMARK   19  A    between atoms: _46  and  _47
REMARK   20  A    between atoms: _53  and  _55
REMARK   21  A    between atoms: _55  and  _56
REMARK   22  A    between atoms: _55  and  _58
REMARK   23  A    between atoms: _61  and  _63
REMARK   24  A    between atoms: _63  and  _64
REMARK   25  A    between atoms: _63  and  _66
REMARK   26  A    between atoms: _66  and  _67
REMARK   27  A    between atoms: _70  and  _72
REMARK   28  A    between atoms: _72  and  _73
REMARK   29  A    between atoms: _72  and  _75
REMARK   30  A    between atoms: _75  and  _76
REMARK   31  A    between atoms: _81  and  _82
REMARK   32  A    between atoms: _84  and  _86
REMARK   33  A    between atoms: _86  and  _87
REMARK   34  A    between atoms: _86  and  _89
REMARK   35  A    between atoms: _89  and  _90
REMARK   36  A    between atoms: _90  and  _91
REMARK   37  A    between atoms: _93  and  _95
REMARK   38  A    between atoms: _95  and  _96
REMARK   39  A    between atoms: _95  and  _98
REMARK   40  A    between atoms: _98  and  _99
REMARK   41  A    between atoms: _99  and  _100
REMARK   42  A    between atoms: _103  and  _105
REMARK   43  A    between atoms: _105  and  _106
REMARK   44  A    between atoms: _105  and  _108
REMARK   45  A    between atoms: _111  and  _113
REMARK   46  A    between atoms: _113  and  _114
REMARK   47  A    between atoms: _116  and  _118
REMARK   48  A    between atoms: _118  and  _119
REMARK   49  A    between atoms: _118  and  _121
REMARK   50  A    between atoms: _121  and  _122
REMARK   51  A    between atoms: _128  and  _130
REMARK   52  A    between atoms: _130  and  _131
REMARK   53  A    between atoms: _130  and  _133
REMARK   54  A    between atoms: _136  and  _138
REMARK   55  A    between atoms: _138  and  _139
REMARK   56  A    between atoms: _138  and  _141
REMARK   57  A    between atoms: _141  and  _142
REMARK   58  A    between atoms: _148  and  _150
REMARK   59  A    between atoms: _150  and  _151
REMARK   60  A    between atoms: _150  and  _153
REMARK   61  A    between atoms: _153  and  _154
REMARK   62  A    between atoms: _159  and  _160
REMARK   63  A    between atoms: _162  and  _164
REMARK   64  A    between atoms: _164  and  _165
REMARK   65  A    between atoms: _164  and  _167
REMARK   66  A    between atoms: _167  and  _168
REMARK   67  A    between atoms: _168  and  _169
REMARK   68  A    between atoms: _171  and  _173
REMARK   69  A    between atoms: _173  and  _174
REMARK   70  A    between atoms: _173  and  _176
REMARK   71  A    between atoms: _176  and  _177
REMARK   72  A    between atoms: _182  and  _183
REMARK   73  A    between atoms: _185  and  _187
REMARK   74  A    between atoms: _187  and  _188
REMARK   75  A    between atoms: _187  and  _190
REMARK   76  A    between atoms: _190  and  _191
REMARK   77  A    between atoms: _191  and  _192
REMARK   78  A    between atoms: _192  and  _193
REMARK   79  A    between atoms: _202  and  _204
REMARK   80  A    between atoms: _204  and  _205
REMARK   81  A    between atoms: _204  and  _207
REMARK   82  A    between atoms: _207  and  _208
REMARK   83  A    between atoms: _208  and  _209
REMARK   84  A    between atoms: _212  and  _214
REMARK   85  A    between atoms: _214  and  _215
REMARK   86  A    between atoms: _214  and  _217
REMARK   87  A    between atoms: _217  and  _218
REMARK   88  A    between atoms: _218  and  _219
REMARK   89  A    between atoms: _219  and  _220
REMARK   90  A    between atoms: _220  and  _221
REMARK   91  A    between atoms: _225  and  _227
REMARK   92  A    between atoms: _227  and  _228
REMARK   93  A    between atoms: _231  and  _233
REMARK   94  A    between atoms: _233  and  _234
REMARK   95  A    between atoms: _236  and  _238
REMARK   96  A    between atoms: _238  and  _239
REMARK   97  A    between atoms: _238  and  _241
REMARK   98  A    between atoms: _241  and  _242
REMARK   99  A    between atoms: _247  and  _249
REMARK  100  A    between atoms: _249  and  _250
REMARK  101  A    between atoms: _249  and  _252
REMARK  102  A    between atoms: _252  and  _253
REMARK  103  A    between atoms: _253  and  _254
REMARK  104  A    between atoms: _257  and  _259
REMARK  105  A    between atoms: _259  and  _260
REMARK  106  A    between atoms: _259  and  _262
REMARK  107  A    between atoms: _262  and  _263
REMARK  108  A    between atoms: _263  and  _264
REMARK  109  A    between atoms: _269  and  _271
REMARK  110  A    between atoms: _271  and  _272
REMARK  111  A    between atoms: _271  and  _274
REMARK  112  A    between atoms: _274  and  _275
REMARK  113  A    between atoms: _277  and  _279
REMARK  114  A    between atoms: _279  and  _280
REMARK  115  A    between atoms: _279  and  _282
REMARK  116  A    between atoms: _282  and  _283
REMARK  117  A    between atoms: _289  and  _291
REMARK  118  A    between atoms: _291  and  _292
REMARK  119  A    between atoms: _291  and  _294
REMARK  120  A    between atoms: _294  and  _295
REMARK  121  A    between atoms: _295  and  _296
REMARK  122  A    between atoms: _296  and  _297
REMARK  123  A    between atoms: _306  and  _308
REMARK  124  A    between atoms: _308  and  _309
REMARK  125  A    between atoms: _308  and  _311
REMARK  126  A    between atoms: _314  and  _316
REMARK  127  A    between atoms: _316  and  _317
REMARK  128  A    between atoms: _316  and  _319
REMARK  129  A    between atoms: _319  and  _320
REMARK  130  A    between atoms: _323  and  _325
REMARK  131  A    between atoms: _325  and  _326
REMARK  132  A    between atoms: _325  and  _328
REMARK  133  A    between atoms: _328  and  _329
REMARK  134  A    between atoms: _332  and  _334
REMARK  135  A    between atoms: _334  and  _335
REMARK  136  A    between atoms: _334  and  _337
REMARK  137  A    between atoms: _337  and  _338
REMARK  138  A    between atoms: _338  and  _339
REMARK  139  A    between atoms: _339  and  _340
REMARK  140  A    between atoms: _349  and  _351
REMARK  141  A    between atoms: _351  and  _352
REMARK  142  A    between atoms: _351  and  _354
REMARK  143  A    between atoms: _354  and  _355
REMARK  144  A    between atoms: _358  and  _360
REMARK  145  A    between atoms: _360  and  _361
REMARK  146  A    between atoms: _360  and  _363
REMARK  147  A    between atoms: _363  and  _364
REMARK  148  A    between atoms: _367  and  _369
REMARK  149  A    between atoms: _369  and  _370
REMARK  150  A    between atoms: _369  and  _372
REMARK  151  A    between atoms: _372  and  _373
REMARK  152  A    between atoms: _378  and  _379
REMARK  153  A    between atoms: _381  and  _383
REMARK  154  A    between atoms: _383  and  _384
REMARK  155  A    between atoms: _383  and  _386
REMARK  156  A    between atoms: _386  and  _387
REMARK  157  A    between atoms: _392  and  _393
REMARK  158  A    between atoms: _395  and  _397
REMARK  159  A    between atoms: _397  and  _398
REMARK  160  A    between atoms: _397  and  _400
REMARK  161  A    between atoms: _400  and  _401
REMARK  162  A    between atoms: _404  and  _406
REMARK  163  A    between atoms: _406  and  _407
REMARK  164  A    between atoms: _406  and  _409
REMARK  165  A    between atoms: _409  and  _410
REMARK  166  A    between atoms: _410  and  _411
REMARK  167  A    between atoms: _416  and  _418
REMARK  168  A    between atoms: _418  and  _419
REMARK  169  A    between atoms: _418  and  _421
REMARK  170  A    between atoms: _424  and  _426
REMARK  171  A    between atoms: _426  and  _427
REMARK  172  A    between atoms: _426  and  _429
REMARK  173  A    between atoms: _429  and  _430
REMARK  174  A    between atoms: _433  and  _435
REMARK  175  A    between atoms: _435  and  _436
REMARK  176  A    between atoms: _435  and  _438
REMARK  177  A    between atoms: _438  and  _439
REMARK  178  A    between atoms: _441  and  _443
REMARK  179  A    between atoms: _443  and  _444
REMARK  180  A    between atoms: _446  and  _448
REMARK  181  A    between atoms: _448  and  _449
REMARK  182  A    between atoms: _448  and  _451
REMARK  183  A    between atoms: _451  and  _452
REMARK  184  A    between atoms: _452  and  _753
REMARK  185  A    between atoms: _453  and  _455
REMARK  186  A    between atoms: _455  and  _456
REMARK  187  A    between atoms: _455  and  _458
REMARK  188  A    between atoms: _458  and  _459
REMARK  189  A    between atoms: _464  and  _465
REMARK  190  A    between atoms: _467  and  _469
REMARK  191  A    between atoms: _469  and  _470
REMARK  192  A    between atoms: _469  and  _472
REMARK  193  A    between atoms: _472  and  _473
REMARK  194  A    between atoms: _473  and  _474
REMARK  195  A    between atoms: _479  and  _481
REMARK  196  A    between atoms: _481  and  _482
REMARK  197  A    between atoms: _481  and  _484
REMARK  198  A    between atoms: _484  and  _485
REMARK  199  A    between atoms: _485  and  _486
REMARK  200  A    between atoms: _491  and  _493
REMARK  201  A    between atoms: _493  and  _494
REMARK  202  A    between atoms: _493  and  _496
REMARK  203  A    between atoms: _496  and  _497
REMARK  204  A    between atoms: _502  and  _503
REMARK  205  A    between atoms: _505  and  _507
REMARK  206  A    between atoms: _507  and  _508
REMARK  207  A    between atoms: _511  and  _513
REMARK  208  A    between atoms: _513  and  _514
REMARK  209  A    between atoms: _513  and  _516
REMARK  210  A    between atoms: _516  and  _517
REMARK  211  A    between atoms: _522  and  _523
REMARK  212  A    between atoms: _525  and  _527
REMARK  213  A    between atoms: _527  and  _528
REMARK  214  A    between atoms: _527  and  _530
REMARK  215  A    between atoms: _530  and  _531
REMARK  216  A    between atoms: _536  and  _537
REMARK  217  A    between atoms: _539  and  _541
REMARK  218  A    between atoms: _541  and  _542
REMARK  219  A    between atoms: _541  and  _544
REMARK  220  A    between atoms: _544  and  _545
REMARK  221  A    between atoms: _548  and  _550
REMARK  222  A    between atoms: _550  and  _551
REMARK  223  A    between atoms: _554  and  _556
REMARK  224  A    between atoms: _556  and  _557
REMARK  225  A    between atoms: _560  and  _562
REMARK  226  A    between atoms: _562  and  _563
REMARK  227  A    between atoms: _562  and  _565
REMARK  228  A    between atoms: _565  and  _566
REMARK  229  A    between atoms: _569  and  _571
REMARK  230  A    between atoms: _571  and  _572
REMARK  231  A    between atoms: _571  and  _574
REMARK  232  A    between atoms: _574  and  _575
REMARK  233  A    between atoms: _578  and  _580
REMARK  234  A    between atoms: _580  and  _581
REMARK  235  A    between atoms: _580  and  _583
REMARK  236  A    between atoms: _583  and  _584
REMARK  237  A    between atoms: _587  and  _589
REMARK  238  A    between atoms: _589  and  _590
REMARK  239  A    between atoms: _589  and  _592
REMARK  240  A    between atoms: _592  and  _593
REMARK  241  A    between atoms: _593  and  _594
REMARK  242  A    between atoms: _594  and  _595
REMARK  243  A    between atoms: _595  and  _596
REMARK  244  A    between atoms: _600  and  _602
REMARK  245  A    between atoms: _602  and  _603
REMARK  246  A    between atoms: _602  and  _605
REMARK  247  A    between atoms: _605  and  _606
REMARK  248  A    between atoms: _611  and  _613
REMARK  249  A    between atoms: _613  and  _614
REMARK  250  A    between atoms: _613  and  _616
REMARK  251  A    between atoms: _616  and  _617
REMARK  252  A    between atoms: _617  and  _618
REMARK  253  A    between atoms: _618  and  _619
REMARK  254  A    between atoms: _619  and  _620
REMARK  255  A    between atoms: _624  and  _626
REMARK  256  A    between atoms: _626  and  _627
REMARK  257  A    between atoms: _626  and  _629
REMARK  258  A    between atoms: _629  and  _630
REMARK  259  A    between atoms: _640  and  _642
REMARK  260  A    between atoms: _642  and  _643
REMARK  261  A    between atoms: _646  and  _648
REMARK  262  A    between atoms: _648  and  _649
REMARK  263  A    between atoms: _648  and  _651
REMARK  264  A    between atoms: _651  and  _652
REMARK  265  A    between atoms: _652  and  _653
REMARK  266  A    between atoms: _656  and  _658
REMARK  267  A    between atoms: _658  and  _659
REMARK  268  A    between atoms: _658  and  _661
REMARK  269  A    between atoms: _661  and  _662
REMARK  270  A    between atoms: _662  and  _663
REMARK  271  A    between atoms: _666  and  _668
REMARK  272  A    between atoms: _668  and  _669
REMARK  273  A    between atoms: _668  and  _671
REMARK  274  A    between atoms: _671  and  _672
REMARK  275  A    between atoms: _672  and  _673
REMARK  276  A    between atoms: _673  and  _674
REMARK  277  A    between atoms: _683  and  _685
REMARK  278  A    between atoms: _685  and  _686
REMARK  279  A    between atoms: _685  and  _688
REMARK  280  A    between atoms: _688  and  _689
REMARK  281  A    between atoms: _692  and  _694
REMARK  282  A    between atoms: _694  and  _695
REMARK  283  A    between atoms: _694  and  _697
REMARK  284  A    between atoms: _697  and  _698
REMARK  285  A    between atoms: _698  and  _699
REMARK  286  A    between atoms: _699  and  _700
REMARK  287  A    between atoms: _709  and  _711
REMARK  288  A    between atoms: _711  and  _712
REMARK  289  A    between atoms: _715  and  _717
REMARK  290  A    between atoms: _717  and  _718
REMARK  291  A    between atoms: _717  and  _720
REMARK  292  A    between atoms: _720  and  _721
REMARK  293  A    between atoms: _726  and  _727
REMARK  294  A    between atoms: _729  and  _731
REMARK  295  A    between atoms: _731  and  _732
REMARK  296  A    between atoms: _731  and  _734
REMARK  297  A    between atoms: _734  and  _735
REMARK  298  A    between atoms: _738  and  _740
REMARK  299  A    between atoms: _740  and  _741
REMARK  300  A    between atoms: _740  and  _743
REMARK  301  A    between atoms: _743  and  _744
REMARK  302  A    between atoms: _747  and  _749
REMARK  303  A    between atoms: _749  and  _750
REMARK  304  A    between atoms: _749  and  _752
REMARK  305  A    between atoms: _752  and  _753
REMARK  306  A    between atoms: _754  and  _756
REMARK  307  A    between atoms: _756  and  _757
REMARK  308  A    between atoms: _756  and  _759
REMARK  309  A    between atoms: _762  and  _764
REMARK  310  A    between atoms: _764  and  _765
REMARK  311  A    between atoms: _764  and  _767
REMARK  312  A    between atoms: _767  and  _768
REMARK  313  A    between atoms: _768  and  _769
REMARK  314  A    between atoms: _772  and  _774
REMARK  315  A    between atoms: _774  and  _775
REMARK  316  A    between atoms: _774  and  _777
REMARK  317  A    between atoms: _777  and  _778
REMARK  318  A    between atoms: _788  and  _790
REMARK  319  A    between atoms: _790  and  _791
REMARK  320  A    between atoms: _790  and  _793
REMARK  321  A    between atoms: _793  and  _794
REMARK  322  A    between atoms: _797  and  _799
REMARK  323  A    between atoms: _799  and  _800
REMARK  324  A    between atoms: _799  and  _802
REMARK  325  A    between atoms: _802  and  _803
REMARK  326  A    between atoms: _808  and  _809
REMARK                            x       y       z     vdW  Elec       q    Type
REMARK                         _______ _______ _______ _____ _____    ______ ____
ROOT
ATOM      1  CA  PHE A   1       8.850  -7.492 -11.531  0.00  0.00    +0.149 C 
ENDROOT
BRANCH   1   2
ATOM      2  C   PHE A   1       7.373  -7.565 -11.927  0.00  0.00    +0.239 C 
ATOM      3  O   PHE A   1       6.803  -8.648 -12.002  0.00  0.00    -0.274 OA
ATOM      4  N   VAL A   2       6.767  -6.408 -12.190  0.00  0.00    -0.298 N 
ATOM      5  H   VAL A   2       7.277  -5.518 -12.021  0.00  0.00    +0.150 HD
BRANCH   4   6
ATOM      6  CA  VAL A   2       5.401  -6.360 -12.711  0.00  0.00    +0.137 C 
BRANCH   6   7
ATOM      7  CB  VAL A   2       4.362  -6.169 -11.586  0.00  0.00    +0.026 C 
ATOM      8  CG2 VAL A   2       4.328  -7.391 -10.683  0.00  0.00    +0.002 C 
ATOM      9  CG1 VAL A   2       4.697  -4.919 -10.783  0.00  0.00    +0.002 C 
ENDBRANCH   6   7
BRANCH   6  10
ATOM     10  C   VAL A   2       5.225  -5.227 -13.727  0.00  0.00    +0.227 C 
ATOM     11  O   VAL A   2       5.991  -4.261 -13.748  0.00  0.00    -0.286 OA
ENDBRANCH   6  10
ENDBRANCH   4   6
ENDBRANCH   1   2
BRANCH   1  12
ATOM     12  N   PHE A   1       9.504  -6.273 -12.000  0.00  0.00    -0.238 NA
ATOM     13  H   PHE A   1       9.085  -5.346 -11.785  0.00  0.00    +0.142 HD
ENDBRANCH   1  12
BRANCH   1  14
ATOM     14  CB  PHE A   1       9.066  -7.697 -10.021  0.00  0.00    +0.053 C 
BRANCH  14  15
ATOM     15  CG  PHE A   1       8.204  -6.821  -9.143  0.00  0.00    -0.020 A 
ATOM     16  CD2 PHE A   1       7.209  -7.376  -8.353  0.00  0.00    -0.004 A 
ATOM     17  CE2 PHE A   1       6.415  -6.577  -7.532  0.00  0.00    -0.000 A 
ATOM     18  CZ  PHE A   1       6.630  -5.217  -7.483  0.00  0.00    -0.000 A 
ATOM     19  CE1 PHE A   1       7.623  -4.651  -8.263  0.00  0.00    -0.000 A 
ATOM     20  CD1 PHE A   1       8.408  -5.452  -9.083  0.00  0.00    -0.004 A 
ENDBRANCH  14  15
ENDBRANCH   1  14
TORSDOF 7
REMARK  Name = ../refined-set-2016/3p9m/3p9m_pocket.pdb
REMARK  326 active torsions:
REMARK  status: ('A' for Active; 'I' for Inactive)
REMARK    1  A    between atoms: _1  and  _3
REMARK    2  A    between atoms: _3  and  _4
REMARK    3  A    between atoms: _3  and  _6
REMARK    4  A    between atoms: _6  and  _7
REMARK    5  A    between atoms: _10  and  _12
REMARK    6  A    between atoms: _12  and  _13
REMARK    7  A    between atoms: _12  and  _15
REMARK    8  A    between atoms: _15  and  _16
REMARK    9  A    between atoms: _16  and  _17
REMARK   10  A    between atoms: _17  and  _18
REMARK   11  A    between atoms: _27  and  _29
REMARK   12  A    between atoms: _29  and  _30
REMARK   13  A    between atoms: _29  and  _32
REMARK   14  A    between atoms: _32  and  _33
REMARK   15  A    between atoms: _38  and  _39
REMARK   16  A    between atoms: _41  and  _43
REMARK   17  A    between atoms: _43  and  _44
REMARK   18  A    between atoms: _43  and  _46
REMARK   19  A    between atoms: _46  and  _47
REMARK   20  A    between atoms: _53  and  _55
REMARK   21  A    between atoms: _55  and  _56
REMARK   22  A    between atoms: _55  and  _58
REMARK   23  A    between atoms: _61  and  _63
REMARK   24  A    between atoms: _63  and  _64
REMARK   25  A    between atoms: _63  and  _66
REMARK   26  A    between atoms: _66  and  _67
REMARK   27  A    between atoms: _70  and  _72
REMARK   28  A    between atoms: _72  and  _73
REMARK   29  A    between atoms: _72  and  _75
REMARK   30  A    between atoms: _75  and  _76
REMARK   31  A    between atoms: _81  and  _82
REMARK   32  A    between atoms: _84  and  _86
REMARK   33  A    between atoms: _86  and  _87
REMARK   34  A    between atoms: _86  and  _89
REMARK   35  A    between atoms: _89  and  _90
REMARK   36  A    between atoms: _90  and  _91
REMARK   37  A    between atoms: _93  and  _95
REMARK   38  A    between atoms: _95  and  _96
REMARK   39  A    between atoms: _95  and  _98
REMARK   40  A    between atoms: _98  and  _99
REMARK   41  A    between atoms: _99  and  _100
REMARK   42  A    between atoms: _103  and  _105
REMARK   43  A    between atoms: _105  and  _106
REMARK   44  A    between atoms: _105  and  _108
REMARK   45  A    between atoms: _111  and  _113
REMARK   46  A    between atoms: _113  and  _114
REMARK   47  A    between atoms: _116  and  _118
REMARK   48  A    between atoms: _118  and  _119
REMARK   49  A    between atoms: _118  and  _121
REMARK   50  A    between atoms: _121  and  _122
REMARK   51  A    between atoms: _128  and  _130
REMARK   52  A    between atoms: _130  and  _131
REMARK   53  A    between atoms: _130  and  _133
REMARK   54  A    between atoms: _136  and  _138
REMARK   55  A    between atoms: _138  and  _139
REMARK   56  A    between atoms: _138  and  _141
REMARK   57  A    between atoms: _141  and  _142
REMARK   58  A    between atoms: _148  and  _150
REMARK   59  A    between atoms: _150  and  _151
REMARK   60  A    between atoms: _150  and  _153
REMARK   61  A    between atoms: _153  and  _154
REMARK   62  A    between atoms: _159  and  _160
REMARK   63  A    between atoms: _162  and  _164
REMARK   64  A    between atoms: _164  and  _165
REMARK   65  A    between atoms: _164  and  _167
REMARK   66  A    between atoms: _167  and  _168
REMARK   67  A    between atoms: _168  and  _169
REMARK   68  A    between atoms: _171  and  _173
REMARK   69  A    between atoms: _173  and  _174
REMARK   70  A    between atoms: _173  and  _176
REMARK   71  A    between atoms: _176  and  _177
REMARK   72  A    between atoms: _182  and  _183
REMARK   73  A    between atoms: _185  and  _187
REMARK   74  A    between atoms: _187  and  _188
REMARK   75  A    between atoms: _187  and  _190
REMARK   76  A    between atoms: _190  and  _191
REMARK   77  A    between atoms: _191  and  _192
REMARK   78  A    between atoms: _192  and  _193
REMARK   79  A    between atoms: _202  and  _204
REMARK   80  A    between atoms: _204  and  _205
REMARK   81  A    between atoms: _204  and  _207
REMARK   82  A    between atoms: _207  and  _208
REMARK   83  A    between atoms: _208  and  _209
REMARK   84  A    between atoms: _212  and  _214
REMARK   85  A    between atoms: _214  and  _215
REMARK   86  A    between atoms: _214  and  _217
REMARK   87  A    between atoms: _217  and  _218
REMARK   88  A    between atoms: _218  and  _219
REMARK   89  A    between atoms: _219  and  _220
REMARK   90  A    between atoms: _220  and  _221
REMARK   91  A    between atoms: _225  and  _227
REMARK   92  A    between atoms: _227  and  _228
REMARK   93  A    between atoms: _231  and  _233
REMARK   94  A    between atoms: _233  and  _234
REMARK   95  A    between atoms: _236  and  _238
REMARK   96  A    between atoms: _238  and  _239
REMARK   97  A    between atoms: _238  and  _241
REMARK   98  A    between atoms: _241  and  _242
REMARK   99  A    between atoms: _247  and  _249
REMARK  100  A    between atoms: _249  and  _250
REMARK  101  A    between atoms: _249  and  _252
REMARK  102  A    between atoms: _252  and  _253
REMARK  103  A    between atoms: _253  and  _254
REMARK  104  A    between atoms: _257  and  _259
REMARK  105  A    between atoms: _259  and  _260
REMARK  106  A    between atoms: _259  and  _262
REMARK  107  A    between atoms: _262  and  _263
REMARK  108  A    between atoms: _263  and  _264
REMARK  109  A    between atoms: _269  and  _271
REMARK  110  A    between atoms: _271  and  _272
REMARK  111  A    between atoms: _271  and  _274
REMARK  112  A    between atoms: _274  and  _275
REMARK  113  A    between atoms: _277  and  _279
REMARK  114  A    between atoms: _279  and  _280
REMARK  115  A    between atoms: _279  and  _282
REMARK  116  A    between atoms: _282  and  _283
REMARK  117  A    between atoms: _289  and  _291
REMARK  118  A    between atoms: _291  and  _292
REMARK  119  A    between atoms: _291  and  _294
REMARK  120  A    between atoms: _294  and  _295
REMARK  121  A    between atoms: _295  and  _296
REMARK  122  A    between atoms: _296  and  _297
REMARK  123  A    between atoms: _306  and  _308
REMARK  124  A    between atoms: _308  and  _309
REMARK  125  A    between atoms: _308  and  _311
REMARK  126  A    between atoms: _314  and  _316
REMARK  127  A    between atoms: _316  and  _317
REMARK  128  A    between atoms: _316  and  _319
REMARK  129  A    between atoms: _319  and  _320
REMARK  130  A    between atoms: _323  and  _325
REMARK  131  A    between atoms: _325  and  _326
REMARK  132  A    between atoms: _325  and  _328
REMARK  133  A    between atoms: _328  and  _329
REMARK  134  A    between atoms: _332  and  _334
REMARK  135  A    between atoms: _334  and  _335
REMARK  136  A    between atoms: _334  and  _337
REMARK  137  A    between atoms: _337  and  _338
REMARK  138  A    between atoms: _338  and  _339
REMARK  139  A    between atoms: _339  and  _340
REMARK  140  A    between atoms: _349  and  _351
REMARK  141  A    between atoms: _351  and  _352
REMARK  142  A    between atoms: _351  and  _354
REMARK  143  A    between atoms: _354  and  _355
REMARK  144  A    between atoms: _358  and  _360
REMARK  145  A    between atoms: _360  and  _361
REMARK  146  A    between atoms: _360  and  _363
REMARK  147  A    between atoms: _363  and  _364
REMARK  148  A    between atoms: _367  and  _369
REMARK  149  A    between atoms: _369  and  _370
REMARK  150  A    between atoms: _369  and  _372
REMARK  151  A    between atoms: _372  and  _373
REMARK  152  A    between atoms: _378  and  _379
REMARK  153  A    between atoms: _381  and  _383
REMARK  154  A    between atoms: _383  and  _384
REMARK  155  A    between atoms: _383  and  _386
REMARK  156  A    between atoms: _386  and  _387
REMARK  157  A    between atoms: _392  and  _393
REMARK  158  A    between atoms: _395  and  _397
REMARK  159  A    between atoms: _397  and  _398
REMARK  160  A    between atoms: _397  and  _400
REMARK  161  A    between atoms: _400  and  _401
REMARK  162  A    between atoms: _404  and  _406
REMARK  163  A    between atoms: _406  and  _407
REMARK  164  A    between atoms: _406  and  _409
REMARK  165  A    between atoms: _409  and  _410
REMARK  166  A    between atoms: _410  and  _411
REMARK  167  A    between atoms: _416  and  _418
REMARK  168  A    between atoms: _418  and  _419
REMARK  169  A    between atoms: _418  and  _421
REMARK  170  A    between atoms: _424  and  _426
REMARK  171  A    between atoms: _426  and  _427
REMARK  172  A    between atoms: _426  and  _429
REMARK  173  A    between atoms: _429  and  _430
REMARK  174  A    between atoms: _433  and  _435
REMARK  175  A    between atoms: _435  and  _436
REMARK  176  A    between atoms: _435  and  _438
REMARK  177  A    between atoms: _438  and  _439
REMARK  178  A    between atoms: _441  and  _443
REMARK  179  A    between atoms: _443  and  _444
REMARK  180  A    between atoms: _446  and  _448
REMARK  181  A    between atoms: _448  and  _449
REMARK  182  A    between atoms: _448  and  _451
REMARK  183  A    between atoms: _451  and  _452
REMARK  184  A    between atoms: _452  and  _753
REMARK  185  A    between atoms: _453  and  _455
REMARK  186  A    between atoms: _455  and  _456
REMARK  187  A    between atoms: _455  and  _458
REMARK  188  A    between atoms: _458  and  _459
REMARK  189  A    between atoms: _464  and  _465
REMARK  190  A    between atoms: _467  and  _469
REMARK  191  A    between atoms: _469  and  _470
REMARK  192  A    between atoms: _469  and  _472
REMARK  193  A    between atoms: _472  and  _473
REMARK  194  A    between atoms: _473  and  _474
REMARK  195  A    between atoms: _479  and  _481
REMARK  196  A    between atoms: _481  and  _482
REMARK  197  A    between atoms: _481  and  _484
REMARK  198  A    between atoms: _484  and  _485
REMARK  199  A    between atoms: _485  and  _486
REMARK  200  A    between atoms: _491  and  _493
REMARK  201  A    between atoms: _493  and  _494
REMARK  202  A    between atoms: _493  and  _496
REMARK  203  A    between atoms: _496  and  _497
REMARK  204  A    between atoms: _502  and  _503
REMARK  205  A    between atoms: _505  and  _507
REMARK  206  A    between atoms: _507  and  _508
REMARK  207  A    between atoms: _511  and  _513
REMARK  208  A    between atoms: _513  and  _514
REMARK  209  A    between atoms: _513  and  _516
REMARK  210  A    between atoms: _516  and  _517
REMARK  211  A    between atoms: _522  and  _523
REMARK  212  A    between atoms: _525  and  _527
REMARK  213  A    between atoms: _527  and  _528
REMARK  214  A    between atoms: _527  and  _530
REMARK  215  A    between atoms: _530  and  _531
REMARK  216  A    between atoms: _536  and  _537
REMARK  217  A    between atoms: _539  and  _541
REMARK  218  A    between atoms: _541  and  _542
REMARK  219  A    between atoms: _541  and  _544
REMARK  220  A    between atoms: _544  and  _545
REMARK  221  A    between atoms: _548  and  _550
REMARK  222  A    between atoms: _550  and  _551
REMARK  223  A    between atoms: _554  and  _556
REMARK  224  A    between atoms: _556  and  _557
REMARK  225  A    between atoms: _560  and  _562
REMARK  226  A    between atoms: _562  and  _563
REMARK  227  A    between atoms: _562  and  _565
REMARK  228  A    between atoms: _565  and  _566
REMARK  229  A    between atoms: _569  and  _571
REMARK  230  A    between atoms: _571  and  _572
REMARK  231  A    between atoms: _571  and  _574
REMARK  232  A    between atoms: _574  and  _575
REMARK  233  A    between atoms: _578  and  _580
REMARK  234  A    between atoms: _580  and  _581
REMARK  235  A    between atoms: _580  and  _583
REMARK  236  A    between atoms: _583  and  _584
REMARK  237  A    between atoms: _587  and  _589
REMARK  238  A    between atoms: _589  and  _590
REMARK  239  A    between atoms: _589  and  _592
REMARK  240  A    between atoms: _592  and  _593
REMARK  241  A    between atoms: _593  and  _594
REMARK  242  A    between atoms: _594  and  _595
REMARK  243  A    between atoms: _595  and  _596
REMARK  244  A    between atoms: _600  and  _602
REMARK  245  A    between atoms: _602  and  _603
REMARK  246  A    between atoms: _602  and  _605
REMARK  247  A    between atoms: _605  and  _606
REMARK  248  A    between atoms: _611  and  _613
REMARK  249  A    between atoms: _613  and  _614
REMARK  250  A    between atoms: _613  and  _616
REMARK  251  A    between atoms: _616  and  _617
REMARK  252  A    between atoms: _617  and  _618
REMARK  253  A    between atoms: _618  and  _619
REMARK  254  A    between atoms: _619  and  _620
REMARK  255  A    between atoms: _624  and  _626
REMARK  256  A    between atoms: _626  and  _627
REMARK  257  A    between atoms: _626  and  _629
REMARK  258  A    between atoms: _629  and  _630
REMARK  259  A    between atoms: _640  and  _642
REMARK  260  A    between atoms: _642  and  _643
REMARK  261  A    between atoms: _646  and  _648
REMARK  262  A    between atoms: _648  and  _649
REMARK  263  A    between atoms: _648  and  _651
REMARK  264  A    between atoms: _651  and  _652
REMARK  265  A    between atoms: _652  and  _653
REMARK  266  A    between atoms: _656  and  _658
REMARK  267  A    between atoms: _658  and  _659
REMARK  268  A    between atoms: _658  and  _661
REMARK  269  A    between atoms: _661  and  _662
REMARK  270  A    between atoms: _662  and  _663
REMARK  271  A    between atoms: _666  and  _668
REMARK  272  A    between atoms: _668  and  _669
REMARK  273  A    between atoms: _668  and  _671
REMARK  274  A    between atoms: _671  and  _672
REMARK  275  A    between atoms: _672  and  _673
REMARK  276  A    between atoms: _673  and  _674
REMARK  277  A    between atoms: _683  and  _685
REMARK  278  A    between atoms: _685  and  _686
REMARK  279  A    between atoms: _685  and  _688
REMARK  280  A    between atoms: _688  and  _689
REMARK  281  A    between atoms: _692  and  _694
REMARK  282  A    between atoms: _694  and  _695
REMARK  283  A    between atoms: _694  and  _697
REMARK  284  A    between atoms: _697  and  _698
REMARK  285  A    between atoms: _698  and  _699
REMARK  286  A    between atoms: _699  and  _700
REMARK  287  A    between atoms: _709  and  _711
REMARK  288  A    between atoms: _711  and  _712
REMARK  289  A    between atoms: _715  and  _717
REMARK  290  A    between atoms: _717  and  _718
REMARK  291  A    between atoms: _717  and  _720
REMARK  292  A    between atoms: _720  and  _721
REMARK  293  A    between atoms: _726  and  _727
REMARK  294  A    between atoms: _729  and  _731
REMARK  295  A    between atoms: _731  and  _732
REMARK  296  A    between atoms: _731  and  _734
REMARK  297  A    between atoms: _734  and  _735
REMARK  298  A    between atoms: _738  and  _740
REMARK  299  A    between atoms: _740  and  _741
REMARK  300  A    between atoms: _740  and  _743
REMARK  301  A    between atoms: _743  and  _744
REMARK  302  A    between atoms: _747  and  _749
REMARK  303  A    between atoms: _749  and  _750
REMARK  304  A    between atoms: _749  and  _752
REMARK  305  A    between atoms: _752  and  _753
REMARK  306  A    between atoms: _754  and  _756
REMARK  307  A    between atoms: _756  and  _757
REMARK  308  A    between atoms: _756  and  _759
REMARK  309  A    between atoms: _762  and  _764
REMARK  310  A    between atoms: _764  and  _765
REMARK  311  A    between atoms: _764  and  _767
REMARK  312  A    between atoms: _767  and  _768
REMARK  313  A    between atoms: _768  and  _769
REMARK  314  A    between atoms: _772  and  _774
REMARK  315  A    between atoms: _774  and  _775
REMARK  316  A    between atoms: _774  and  _777
REMARK  317  A    between atoms: _777  and  _778
REMARK  318  A    between atoms: _788  and  _790
REMARK  319  A    between atoms: _790  and  _791
REMARK  320  A    between atoms: _790  and  _793
REMARK  321  A    between atoms: _793  and  _794
REMARK  322  A    between atoms: _797  and  _799
REMARK  323  A    between atoms: _799  and  _800
REMARK  324  A    between atoms: _799  and  _802
REMARK  325  A    between atoms: _802  and  _803
REMARK  326  A    between atoms: _808  and  _809
REMARK                            x       y       z     vdW  Elec       q    Type
REMARK                         _______ _______ _______ _____ _____    ______ ____
ROOT
ATOM      1  CB  PHE A   1      -0.430  -2.361 -15.607  0.00  0.00    +0.051 C 
ENDROOT
BRANCH   1   2
ATOM      2  CG  PHE A   1      -1.775  -2.024 -16.202  0.00  0.00    -0.020 A 
ATOM      3  CD2 PHE A   1      -2.780  -2.986 -16.279  0.00  0.00    -0.004 A 
ATOM      4  CE2 PHE A   1      -4.028  -2.675 -16.818  0.00  0.00    -0.000 A 
ATOM      5  CZ  PHE A   1      -4.279  -1.389 -17.289  0.00  0.00    -0.000 A 
ATOM      6  CE1 PHE A   1      -3.279  -0.418 -17.201  0.00  0.00    -0.000 A 
ATOM      7  CD1 PHE A   1      -2.041  -0.744 -16.659  0.00  0.00    -0.004 A 
ENDBRANCH   1   2
BRANCH   1   8
ATOM      8  CA  PHE A   1       0.540  -2.997 -16.598  0.00  0.00    +0.137 C 
BRANCH   8   9
ATOM      9  N   PHE A   1       1.838  -3.212 -15.983  0.00  0.00    -0.239 NA
ATOM     10  H   PHE A   1       2.318  -2.403 -15.540  0.00  0.00    +0.142 HD
ENDBRANCH   8   9
BRANCH   8  11
ATOM     11  C   PHE A   1       0.713  -2.067 -17.793  0.00  0.00    +0.224 C 
ATOM     12  O   PHE A   1       1.285  -0.971 -17.656  0.00  0.00    -0.287 OA
ENDBRANCH   8  11
ENDBRANCH   1   8
TORSDOF 4
REMARK  Name = ../refined-set-2016/3p9m/3p9m_pocket.pdb
REMARK  326 active torsions:
REMARK  status: ('A' for Active; 'I' for Inactive)
REMARK    1  A    between atoms: _1  and  _3
REMARK    2  A    between atoms: _3  and  _4
REMARK    3  A    between atoms: _3  and  _6
REMARK    4  A    between atoms: _6  and  _7
REMARK    5  A    between atoms: _10  and  _12
REMARK    6  A    between atoms: _12  and  _13
REMARK    7  A    between atoms: _12  and  _15
REMARK    8  A    between atoms: _15  and  _16
REMARK    9  A    between atoms: _16  and  _17
REMARK   10  A    between atoms: _17  and  _18
REMARK   11  A    between atoms: _27  and  _29
REMARK   12  A    between atoms: _29  and  _30
REMARK   13  A    between atoms: _29  and  _32
REMARK   14  A    between atoms: _32  and  _33
REMARK   15  A    between atoms: _38  and  _39
REMARK   16  A    between atoms: _41  and  _43
REMARK   17  A    between atoms: _43  and  _44
REMARK   18  A    between atoms: _43  and  _46
REMARK   19  A    between atoms: _46  and  _47
REMARK   20  A    between atoms: _53  and  _55
REMARK   21  A    between atoms: _55  and  _56
REMARK   22  A    between atoms: _55  and  _58
REMARK   23  A    between atoms: _61  and  _63
REMARK   24  A    between atoms: _63  and  _64
REMARK   25  A    between atoms: _63  and  _66
REMARK   26  A    between atoms: _66  and  _67
REMARK   27  A    between atoms: _70  and  _72
REMARK   28  A    between atoms: _72  and  _73
REMARK   29  A    between atoms: _72  and  _75
REMARK   30  A    between atoms: _75  and  _76
REMARK   31  A    between atoms: _81  and  _82
REMARK   32  A    between atoms: _84  and  _86
REMARK   33  A    between atoms: _86  and  _87
REMARK   34  A    between atoms: _86  and  _89
REMARK   35  A    between atoms: _89  and  _90
REMARK   36  A    between atoms: _90  and  _91
REMARK   37  A    between atoms: _93  and  _95
REMARK   38  A    between atoms: _95  and  _96
REMARK   39  A    between atoms: _95  and  _98
REMARK   40  A    between atoms: _98  and  _99
REMARK   41  A    between atoms: _99  and  _100
REMARK   42  A    between atoms: _103  and  _105
REMARK   43  A    between atoms: _105  and  _106
REMARK   44  A    between atoms: _105  and  _108
REMARK   45  A    between atoms: _111  and  _113
REMARK   46  A    between atoms: _113  and  _114
REMARK   47  A    between atoms: _116  and  _118
REMARK   48  A    between atoms: _118  and  _119
REMARK   49  A    between atoms: _118  and  _121
REMARK   50  A    between atoms: _121  and  _122
REMARK   51  A    between atoms: _128  and  _130
REMARK   52  A    between atoms: _130  and  _131
REMARK   53  A    between atoms: _130  and  _133
REMARK   54  A    between atoms: _136  and  _138
REMARK   55  A    between atoms: _138  and  _139
REMARK   56  A    between atoms: _138  and  _141
REMARK   57  A    between atoms: _141  and  _142
REMARK   58  A    between atoms: _148  and  _150
REMARK   59  A    between atoms: _150  and  _151
REMARK   60  A    between atoms: _150  and  _153
REMARK   61  A    between atoms: _153  and  _154
REMARK   62  A    between atoms: _159  and  _160
REMARK   63  A    between atoms: _162  and  _164
REMARK   64  A    between atoms: _164  and  _165
REMARK   65  A    between atoms: _164  and  _167
REMARK   66  A    between atoms: _167  and  _168
REMARK   67  A    between atoms: _168  and  _169
REMARK   68  A    between atoms: _171  and  _173
REMARK   69  A    between atoms: _173  and  _174
REMARK   70  A    between atoms: _173  and  _176
REMARK   71  A    between atoms: _176  and  _177
REMARK   72  A    between atoms: _182  and  _183
REMARK   73  A    between atoms: _185  and  _187
REMARK   74  A    between atoms: _187  and  _188
REMARK   75  A    between atoms: _187  and  _190
REMARK   76  A    between atoms: _190  and  _191
REMARK   77  A    between atoms: _191  and  _192
REMARK   78  A    between atoms: _192  and  _193
REMARK   79  A    between atoms: _202  and  _204
REMARK   80  A    between atoms: _204  and  _205
REMARK   81  A    between atoms: _204  and  _207
REMARK   82  A    between atoms: _207  and  _208
REMARK   83  A    between atoms: _208  and  _209
REMARK   84  A    between atoms: _212  and  _214
REMARK   85  A    between atoms: _214  and  _215
REMARK   86  A    between atoms: _214  and  _217
REMARK   87  A    between atoms: _217  and  _218
REMARK   88  A    between atoms: _218  and  _219
REMARK   89  A    between atoms: _219  and  _220
REMARK   90  A    between atoms: _220  and  _221
REMARK   91  A    between atoms: _225  and  _227
REMARK   92  A    between atoms: _227  and  _228
REMARK   93  A    between atoms: _231  and  _233
REMARK   94  A    between atoms: _233  and  _234
REMARK   95  A    between atoms: _236  and  _238
REMARK   96  A    between atoms: _238  and  _239
REMARK   97  A    between atoms: _238  and  _241
REMARK   98  A    between atoms: _241  and  _242
REMARK   99  A    between atoms: _247  and  _249
REMARK  100  A    between atoms: _249  and  _250
REMARK  101  A    between atoms: _249  and  _252
REMARK  102  A    between atoms: _252  and  _253
REMARK  103  A    between atoms: _253  and  _254
REMARK  104  A    between atoms: _257  and  _259
REMARK  105  A    between atoms: _259  and  _260
REMARK  106  A    between atoms: _259  and  _262
REMARK  107  A    between atoms: _262  and  _263
REMARK  108  A    between atoms: _263  and  _264
REMARK  109  A    between atoms: _269  and  _271
REMARK  110  A    between atoms: _271  and  _272
REMARK  111  A    between atoms: _271  and  _274
REMARK  112  A    between atoms: _274  and  _275
REMARK  113  A    between atoms: _277  and  _279
REMARK  114  A    between atoms: _279  and  _280
REMARK  115  A    between atoms: _279  and  _282
REMARK  116  A    between atoms: _282  and  _283
REMARK  117  A    between atoms: _289  and  _291
REMARK  118  A    between atoms: _291  and  _292
REMARK  119  A    between atoms: _291  and  _294
REMARK  120  A    between atoms: _294  and  _295
REMARK  121  A    between atoms: _295  and  _296
REMARK  122  A    between atoms: _296  and  _297
REMARK  123  A    between atoms: _306  and  _308
REMARK  124  A    between atoms: _308  and  _309
REMARK  125  A    between atoms: _308  and  _311
REMARK  126  A    between atoms: _314  and  _316
REMARK  127  A    between atoms: _316  and  _317
REMARK  128  A    between atoms: _316  and  _319
REMARK  129  A    between atoms: _319  and  _320
REMARK  130  A    between atoms: _323  and  _325
REMARK  131  A    between atoms: _325  and  _326
REMARK  132  A    between atoms: _325  and  _328
REMARK  133  A    between atoms: _328  and  _329
REMARK  134  A    between atoms: _332  and  _334
REMARK  135  A    between atoms: _334  and  _335
REMARK  136  A    between atoms: _334  and  _337
REMARK  137  A    between atoms: _337  and  _338
REMARK  138  A    between atoms: _338  and  _339
REMARK  139  A    between atoms: _339  and  _340
REMARK  140  A    between atoms: _349  and  _351
REMARK  141  A    between atoms: _351  and  _352
REMARK  142  A    between atoms: _351  and  _354
REMARK  143  A    between atoms: _354  and  _355
REMARK  144  A    between atoms: _358  and  _360
REMARK  145  A    between atoms: _360  and  _361
REMARK  146  A    between atoms: _360  and  _363
REMARK  147  A    between atoms: _363  and  _364
REMARK  148  A    between atoms: _367  and  _369
REMARK  149  A    between atoms: _369  and  _370
REMARK  150  A    between atoms: _369  and  _372
REMARK  151  A    between atoms: _372  and  _373
REMARK  152  A    between atoms: _378  and  _379
REMARK  153  A    between atoms: _381  and  _383
REMARK  154  A    between atoms: _383  and  _384
REMARK  155  A    between atoms: _383  and  _386
REMARK  156  A    between atoms: _386  and  _387
REMARK  157  A    between atoms: _392  and  _393
REMARK  158  A    between atoms: _395  and  _397
REMARK  159  A    between atoms: _397  and  _398
REMARK  160  A    between atoms: _397  and  _400
REMARK  161  A    between atoms: _400  and  _401
REMARK  162  A    between atoms: _404  and  _406
REMARK  163  A    between atoms: _406  and  _407
REMARK  164  A    between atoms: _406  and  _409
REMARK  165  A    between atoms: _409  and  _410
REMARK  166  A    between atoms: _410  and  _411
REMARK  167  A    between atoms: _416  and  _418
REMARK  168  A    between atoms: _418  and  _419
REMARK  169  A    between atoms: _418  and  _421
REMARK  170  A    between atoms: _424  and  _426
REMARK  171  A    between atoms: _426  and  _427
REMARK  172  A    between atoms: _426  and  _429
REMARK  173  A    between atoms: _429  and  _430
REMARK  174  A    between atoms: _433  and  _435
REMARK  175  A    between atoms: _435  and  _436
REMARK  176  A    between atoms: _435  and  _438
REMARK  177  A    between atoms: _438  and  _439
REMARK  178  A    between atoms: _441  and  _443
REMARK  179  A    between atoms: _443  and  _444
REMARK  180  A    between atoms: _446  and  _448
REMARK  181  A    between atoms: _448  and  _449
REMARK  182  A    between atoms: _448  and  _451
REMARK  183  A    between atoms: _451  and  _452
REMARK  184  A    between atoms: _452  and  _753
REMARK  185  A    between atoms: _453  and  _455
REMARK  186  A    between atoms: _455  and  _456
REMARK  187  A    between atoms: _455  and  _458
REMARK  188  A    between atoms: _458  and  _459
REMARK  189  A    between atoms: _464  and  _465
REMARK  190  A    between atoms: _467  and  _469
REMARK  191  A    between atoms: _469  and  _470
REMARK  192  A    between atoms: _469  and  _472
REMARK  193  A    between atoms: _472  and  _473
REMARK  194  A    between atoms: _473  and  _474
REMARK  195  A    between atoms: _479  and  _481
REMARK  196  A    between atoms: _481  and  _482
REMARK  197  A    between atoms: _481  and  _484
REMARK  198  A    between atoms: _484  and  _485
REMARK  199  A    between atoms: _485  and  _486
REMARK  200  A    between atoms: _491  and  _493
REMARK  201  A    between atoms: _493  and  _494
REMARK  202  A    between atoms: _493  and  _496
REMARK  203  A    between atoms: _496  and  _497
REMARK  204  A    between atoms: _502  and  _503
REMARK  205  A    between atoms: _505  and  _507
REMARK  206  A    between atoms: _507  and  _508
REMARK  207  A    between atoms: _511  and  _513
REMARK  208  A    between atoms: _513  and  _514
REMARK  209  A    between atoms: _513  and  _516
REMARK  210  A    between atoms: _516  and  _517
REMARK  211  A    between atoms: _522  and  _523
REMARK  212  A    between atoms: _525  and  _527
REMARK  213  A    between atoms: _527  and  _528
REMARK  214  A    between atoms: _527  and  _530
REMARK  215  A    between atoms: _530  and  _531
REMARK  216  A    between atoms: _536  and  _537
REMARK  217  A    between atoms: _539  and  _541
REMARK  218  A    between atoms: _541  and  _542
REMARK  219  A    between atoms: _541  and  _544
REMARK  220  A    between atoms: _544  and  _545
REMARK  221  A    between atoms: _548  and  _550
REMARK  222  A    between atoms: _550  and  _551
REMARK  223  A    between atoms: _554  and  _556
REMARK  224  A    between atoms: _556  and  _557
REMARK  225  A    between atoms: _560  and  _562
REMARK  226  A    between atoms: _562  and  _563
REMARK  227  A    between atoms: _562  and  _565
REMARK  228  A    between atoms: _565  and  _566
REMARK  229  A    between atoms: _569  and  _571
REMARK  230  A    between atoms: _571  and  _572
REMARK  231  A    between atoms: _571  and  _574
REMARK  232  A    between atoms: _574  and  _575
REMARK  233  A    between atoms: _578  and  _580
REMARK  234  A    between atoms: _580  and  _581
REMARK  235  A    between atoms: _580  and  _583
REMARK  236  A    between atoms: _583  and  _584
REMARK  237  A    between atoms: _587  and  _589
REMARK  238  A    between atoms: _589  and  _590
REMARK  239  A    between atoms: _589  and  _592
REMARK  240  A    between atoms: _592  and  _593
REMARK  241  A    between atoms: _593  and  _594
REMARK  242  A    between atoms: _594  and  _595
REMARK  243  A    between atoms: _595  and  _596
REMARK  244  A    between atoms: _600  and  _602
REMARK  245  A    between atoms: _602  and  _603
REMARK  246  A    between atoms: _602  and  _605
REMARK  247  A    between atoms: _605  and  _606
REMARK  248  A    between atoms: _611  and  _613
REMARK  249  A    between atoms: _613  and  _614
REMARK  250  A    between atoms: _613  and  _616
REMARK  251  A    between atoms: _616  and  _617
REMARK  252  A    between atoms: _617  and  _618
REMARK  253  A    between atoms: _618  and  _619
REMARK  254  A    between atoms: _619  and  _620
REMARK  255  A    between atoms: _624  and  _626
REMARK  256  A    between atoms: _626  and  _627
REMARK  257  A    between atoms: _626  and  _629
REMARK  258  A    between atoms: _629  and  _630
REMARK  259  A    between atoms: _640  and  _642
REMARK  260  A    between atoms: _642  and  _643
REMARK  261  A    between atoms: _646  and  _648
REMARK  262  A    between atoms: _648  and  _649
REMARK  263  A    between atoms: _648  and  _651
REMARK  264  A    between atoms: _651  and  _652
REMARK  265  A    between atoms: _652  and  _653
REMARK  266  A    between atoms: _656  and  _658
REMARK  267  A    between atoms: _658  and  _659
REMARK  268  A    between atoms: _658  and  _661
REMARK  269  A    between atoms: _661  and  _662
REMARK  270  A    between atoms: _662  and  _663
REMARK  271  A    between atoms: _666  and  _668
REMARK  272  A    between atoms: _668  and  _669
REMARK  273  A    between atoms: _668  and  _671
REMARK  274  A    between atoms: _671  and  _672
REMARK  275  A    between atoms: _672  and  _673
REMARK  276  A    between atoms: _673  and  _674
REMARK  277  A    between atoms: _683  and  _685
REMARK  278  A    between atoms: _685  and  _686
REMARK  279  A    between atoms: _685  and  _688
REMARK  280  A    between atoms: _688  and  _689
REMARK  281  A    between atoms: _692  and  _694
REMARK  282  A    between atoms: _694  and  _695
REMARK  283  A    between atoms: _694  and  _697
REMARK  284  A    between atoms: _697  and  _698
REMARK  285  A    between atoms: _698  and  _699
REMARK  286  A    between atoms: _699  and  _700
REMARK  287  A    between atoms: _709  and  _711
REMARK  288  A    between atoms: _711  and  _712
REMARK  289  A    between atoms: _715  and  _717
REMARK  290  A    between atoms: _717  and  _718
REMARK  291  A    between atoms: _717  and  _720
REMARK  292  A    between atoms: _720  and  _721
REMARK  293  A    between atoms: _726  and  _727
REMARK  294  A    between atoms: _729  and  _731
REMARK  295  A    between atoms: _731  and  _732
REMARK  296  A    between atoms: _731  and  _734
REMARK  297  A    between atoms: _734  and  _735
REMARK  298  A    between atoms: _738  and  _740
REMARK  299  A    between atoms: _740  and  _741
REMARK  300  A    between atoms: _740  and  _743
REMARK  301  A    between atoms: _743  and  _744
REMARK  302  A    between atoms: _747  and  _749
REMARK  303  A    between atoms: _749  and  _750
REMARK  304  A    between atoms: _749  and  _752
REMARK  305  A    between atoms: _752  and  _753
REMARK  306  A    between atoms: _754  and  _756
REMARK  307  A    between atoms: _756  and  _757
REMARK  308  A    between atoms: _756  and  _759
REMARK  309  A    between atoms: _762  and  _764
REMARK  310  A    between atoms: _764  and  _765
REMARK  311  A    between atoms: _764  and  _767
REMARK  312  A    between atoms: _767  and  _768
REMARK  313  A    between atoms: _768  and  _769
REMARK  314  A    between atoms: _772  and  _774
REMARK  315  A    between atoms: _774  and  _775
REMARK  316  A    between atoms: _774  and  _777
REMARK  317  A    between atoms: _777  and  _778
REMARK  318  A    between atoms: _788  and  _790
REMARK  319  A    between atoms: _790  and  _791
REMARK  320  A    between atoms: _790  and  _793
REMARK  321  A    between atoms: _793  and  _794
REMARK  322  A    between atoms: _797  and  _799
REMARK  323  A    between atoms: _799  and  _800
REMARK  324  A    between atoms: _799  and  _802
REMARK  325  A    between atoms: _802  and  _803
REMARK  326  A    between atoms: _808  and  _809
REMARK                            x       y       z     vdW  Elec       q    Type
REMARK                         _______ _______ _______ _____ _____    ______ ____
ROOT
ATOM      1  CG  TYR A   1      -0.725  -5.246 -12.517  0.00  0.00    -0.020 A 
ATOM      2  CD2 TYR A   1       0.548  -5.311 -11.970  0.00  0.00    -0.001 A 
ATOM      3  CE2 TYR A   1       1.173  -4.177 -11.475  0.00  0.00    +0.036 A 
ATOM      4  CZ  TYR A   1       0.517  -2.971 -11.517  0.00  0.00    +0.134 A 
ATOM      5  CE1 TYR A   1      -0.750  -2.885 -12.050  0.00  0.00    +0.036 A 
ATOM      6  CD1 TYR A   1      -1.358  -4.019 -12.554  0.00  0.00    -0.001 A 
ENDROOT
BRANCH   4   7
ATOM      7  OH  TYR A   1       1.120  -1.834 -11.028  0.00  0.00    -0.506 OA
ATOM      8  HH  TYR A   1       0.508  -1.064 -11.138  0.00  0.00    +0.292 HD
ENDBRANCH   4   7
BRANCH   1   9
ATOM      9  CB  TYR A   1      -1.396  -6.477 -13.065  0.00  0.00    +0.051 C 
BRANCH   9  10
ATOM     10  CA  TYR A   1      -1.194  -6.660 -14.568  0.00  0.00    +0.137 C 
BRANCH  10  11
ATOM     11  N   TYR A   1      -2.465  -6.630 -15.260  0.00  0.00    -0.239 NA
ATOM     12  H   TYR A   1      -3.345  -6.496 -14.723  0.00  0.00    +0.142 HD
ENDBRANCH  10  11
BRANCH  10  13
ATOM     13  C   TYR A   1      -0.562  -8.010 -14.860  0.00  0.00    +0.224 C 
ATOM     14  O   TYR A   1      -1.240  -9.033 -14.836  0.00  0.00    -0.287 OA
ENDBRANCH  10  13
ENDBRANCH   9  10
ENDBRANCH   1   9
TORSDOF 5
REMARK  Name = ../refined-set-2016/3p9m/3p9m_pocket.pdb
REMARK  326 active torsions:
REMARK  status: ('A' for Active; 'I' for Inactive)
REMARK    1  A    between atoms: _1  and  _3
REMARK    2  A    between atoms: _3  and  _4
REMARK    3  A    between atoms: _3  and  _6
REMARK    4  A    between atoms: _6  and  _7
REMARK    5  A    between atoms: _10  and  _12
REMARK    6  A    between atoms: _12  and  _13
REMARK    7  A    between atoms: _12  and  _15
REMARK    8  A    between atoms: _15  and  _16
REMARK    9  A    between atoms: _16  and  _17
REMARK   10  A    between atoms: _17  and  _18
REMARK   11  A    between atoms: _27  and  _29
REMARK   12  A    between atoms: _29  and  _30
REMARK   13  A    between atoms: _29  and  _32
REMARK   14  A    between atoms: _32  and  _33
REMARK   15  A    between atoms: _38  and  _39
REMARK   16  A    between atoms: _41  and  _43
REMARK   17  A    between atoms: _43  and  _44
REMARK   18  A    between atoms: _43  and  _46
REMARK   19  A    between atoms: _46  and  _47
REMARK   20  A    between atoms: _53  and  _55
REMARK   21  A    between atoms: _55  and  _56
REMARK   22  A    between atoms: _55  and  _58
REMARK   23  A    between atoms: _61  and  _63
REMARK   24  A    between atoms: _63  and  _64
REMARK   25  A    between atoms: _63  and  _66
REMARK   26  A    between atoms: _66  and  _67
REMARK   27  A    between atoms: _70  and  _72
REMARK   28  A    between atoms: _72  and  _73
REMARK   29  A    between atoms: _72  and  _75
REMARK   30  A    between atoms: _75  and  _76
REMARK   31  A    between atoms: _81  and  _82
REMARK   32  A    between atoms: _84  and  _86
REMARK   33  A    between atoms: _86  and  _87
REMARK   34  A    between atoms: _86  and  _89
REMARK   35  A    between atoms: _89  and  _90
REMARK   36  A    between atoms: _90  and  _91
REMARK   37  A    between atoms: _93  and  _95
REMARK   38  A    between atoms: _95  and  _96
REMARK   39  A    between atoms: _95  and  _98
REMARK   40  A    between atoms: _98  and  _99
REMARK   41  A    between atoms: _99  and  _100
REMARK   42  A    between atoms: _103  and  _105
REMARK   43  A    between atoms: _105  and  _106
REMARK   44  A    between atoms: _105  and  _108
REMARK   45  A    between atoms: _111  and  _113
REMARK   46  A    between atoms: _113  and  _114
REMARK   47  A    between atoms: _116  and  _118
REMARK   48  A    between atoms: _118  and  _119
REMARK   49  A    between atoms: _118  and  _121
REMARK   50  A    between atoms: _121  and  _122
REMARK   51  A    between atoms: _128  and  _130
REMARK   52  A    between atoms: _130  and  _131
REMARK   53  A    between atoms: _130  and  _133
REMARK   54  A    between atoms: _136  and  _138
REMARK   55  A    between atoms: _138  and  _139
REMARK   56  A    between atoms: _138  and  _141
REMARK   57  A    between atoms: _141  and  _142
REMARK   58  A    between atoms: _148  and  _150
REMARK   59  A    between atoms: _150  and  _151
REMARK   60  A    between atoms: _150  and  _153
REMARK   61  A    between atoms: _153  and  _154
REMARK   62  A    between atoms: _159  and  _160
REMARK   63  A    between atoms: _162  and  _164
REMARK   64  A    between atoms: _164  and  _165
REMARK   65  A    between atoms: _164  and  _167
REMARK   66  A    between atoms: _167  and  _168
REMARK   67  A    between atoms: _168  and  _169
REMARK   68  A    between atoms: _171  and  _173
REMARK   69  A    between atoms: _173  and  _174
REMARK   70  A    between atoms: _173  and  _176
REMARK   71  A    between atoms: _176  and  _177
REMARK   72  A    between atoms: _182  and  _183
REMARK   73  A    between atoms: _185  and  _187
REMARK   74  A    between atoms: _187  and  _188
REMARK   75  A    between atoms: _187  and  _190
REMARK   76  A    between atoms: _190  and  _191
REMARK   77  A    between atoms: _191  and  _192
REMARK   78  A    between atoms: _192  and  _193
REMARK   79  A    between atoms: _202  and  _204
REMARK   80  A    between atoms: _204  and  _205
REMARK   81  A    between atoms: _204  and  _207
REMARK   82  A    between atoms: _207  and  _208
REMARK   83  A    between atoms: _208  and  _209
REMARK   84  A    between atoms: _212  and  _214
REMARK   85  A    between atoms: _214  and  _215
REMARK   86  A    between atoms: _214  and  _217
REMARK   87  A    between atoms: _217  and  _218
REMARK   88  A    between atoms: _218  and  _219
REMARK   89  A    between atoms: _219  and  _220
REMARK   90  A    between atoms: _220  and  _221
REMARK   91  A    between atoms: _225  and  _227
REMARK   92  A    between atoms: _227  and  _228
REMARK   93  A    between atoms: _231  and  _233
REMARK   94  A    between atoms: _233  and  _234
REMARK   95  A    between atoms: _236  and  _238
REMARK   96  A    between atoms: _238  and  _239
REMARK   97  A    between atoms: _238  and  _241
REMARK   98  A    between atoms: _241  and  _242
REMARK   99  A    between atoms: _247  and  _249
REMARK  100  A    between atoms: _249  and  _250
REMARK  101  A    between atoms: _249  and  _252
REMARK  102  A    between atoms: _252  and  _253
REMARK  103  A    between atoms: _253  and  _254
REMARK  104  A    between atoms: _257  and  _259
REMARK  105  A    between atoms: _259  and  _260
REMARK  106  A    between atoms: _259  and  _262
REMARK  107  A    between atoms: _262  and  _263
REMARK  108  A    between atoms: _263  and  _264
REMARK  109  A    between atoms: _269  and  _271
REMARK  110  A    between atoms: _271  and  _272
REMARK  111  A    between atoms: _271  and  _274
REMARK  112  A    between atoms: _274  and  _275
REMARK  113  A    between atoms: _277  and  _279
REMARK  114  A    between atoms: _279  and  _280
REMARK  115  A    between atoms: _279  and  _282
REMARK  116  A    between atoms: _282  and  _283
REMARK  117  A    between atoms: _289  and  _291
REMARK  118  A    between atoms: _291  and  _292
REMARK  119  A    between atoms: _291  and  _294
REMARK  120  A    between atoms: _294  and  _295
REMARK  121  A    between atoms: _295  and  _296
REMARK  122  A    between atoms: _296  and  _297
REMARK  123  A    between atoms: _306  and  _308
REMARK  124  A    between atoms: _308  and  _309
REMARK  125  A    between atoms: _308  and  _311
REMARK  126  A    between atoms: _314  and  _316
REMARK  127  A    between atoms: _316  and  _317
REMARK  128  A    between atoms: _316  and  _319
REMARK  129  A    between atoms: _319  and  _320
REMARK  130  A    between atoms: _323  and  _325
REMARK  131  A    between atoms: _325  and  _326
REMARK  132  A    between atoms: _325  and  _328
REMARK  133  A    between atoms: _328  and  _329
REMARK  134  A    between atoms: _332  and  _334
REMARK  135  A    between atoms: _334  and  _335
REMARK  136  A    between atoms: _334  and  _337
REMARK  137  A    between atoms: _337  and  _338
REMARK  138  A    between atoms: _338  and  _339
REMARK  139  A    between atoms: _339  and  _340
REMARK  140  A    between atoms: _349  and  _351
REMARK  141  A    between atoms: _351  and  _352
REMARK  142  A    between atoms: _351  and  _354
REMARK  143  A    between atoms: _354  and  _355
REMARK  144  A    between atoms: _358  and  _360
REMARK  145  A    between atoms: _360  and  _361
REMARK  146  A    between atoms: _360  and  _363
REMARK  147  A    between atoms: _363  and  _364
REMARK  148  A    between atoms: _367  and  _369
REMARK  149  A    between atoms: _369  and  _370
REMARK  150  A    between atoms: _369  and  _372
REMARK  151  A    between atoms: _372  and  _373
REMARK  152  A    between atoms: _378  and  _379
REMARK  153  A    between atoms: _381  and  _383
REMARK  154  A    between atoms: _383  and  _384
REMARK  155  A    between atoms: _383  and  _386
REMARK  156  A    between atoms: _386  and  _387
REMARK  157  A    between atoms: _392  and  _393
REMARK  158  A    between atoms: _395  and  _397
REMARK  159  A    between atoms: _397  and  _398
REMARK  160  A    between atoms: _397  and  _400
REMARK  161  A    between atoms: _400  and  _401
REMARK  162  A    between atoms: _404  and  _406
REMARK  163  A    between atoms: _406  and  _407
REMARK  164  A    between atoms: _406  and  _409
REMARK  165  A    between atoms: _409  and  _410
REMARK  166  A    between atoms: _410  and  _411
REMARK  167  A    between atoms: _416  and  _418
REMARK  168  A    between atoms: _418  and  _419
REMARK  169  A    between atoms: _418  and  _421
REMARK  170  A    between atoms: _424  and  _426
REMARK  171  A    between atoms: _426  and  _427
REMARK  172  A    between atoms: _426  and  _429
REMARK  173  A    between atoms: _429  and  _430
REMARK  174  A    between atoms: _433  and  _435
REMARK  175  A    between atoms: _435  and  _436
REMARK  176  A    between atoms: _435  and  _438
REMARK  177  A    between atoms: _438  and  _439
REMARK  178  A    between atoms: _441  and  _443
REMARK  179  A    between atoms: _443  and  _444
REMARK  180  A    between atoms: _446  and  _448
REMARK  181  A    between atoms: _448  and  _449
REMARK  182  A    between atoms: _448  and  _451
REMARK  183  A    between atoms: _451  and  _452
REMARK  184  A    between atoms: _452  and  _753
REMARK  185  A    between atoms: _453  and  _455
REMARK  186  A    between atoms: _455  and  _456
REMARK  187  A    between atoms: _455  and  _458
REMARK  188  A    between atoms: _458  and  _459
REMARK  189  A    between atoms: _464  and  _465
REMARK  190  A    between atoms: _467  and  _469
REMARK  191  A    between atoms: _469  and  _470
REMARK  192  A    between atoms: _469  and  _472
REMARK  193  A    between atoms: _472  and  _473
REMARK  194  A    between atoms: _473  and  _474
REMARK  195  A    between atoms: _479  and  _481
REMARK  196  A    between atoms: _481  and  _482
REMARK  197  A    between atoms: _481  and  _484
REMARK  198  A    between atoms: _484  and  _485
REMARK  199  A    between atoms: _485  and  _486
REMARK  200  A    between atoms: _491  and  _493
REMARK  201  A    between atoms: _493  and  _494
REMARK  202  A    between atoms: _493  and  _496
REMARK  203  A    between atoms: _496  and  _497
REMARK  204  A    between atoms: _502  and  _503
REMARK  205  A    between atoms: _505  and  _507
REMARK  206  A    between atoms: _507  and  _508
REMARK  207  A    between atoms: _511  and  _513
REMARK  208  A    between atoms: _513  and  _514
REMARK  209  A    between atoms: _513  and  _516
REMARK  210  A    between atoms: _516  and  _517
REMARK  211  A    between atoms: _522  and  _523
REMARK  212  A    between atoms: _525  and  _527
REMARK  213  A    between atoms: _527  and  _528
REMARK  214  A    between atoms: _527  and  _530
REMARK  215  A    between atoms: _530  and  _531
REMARK  216  A    between atoms: _536  and  _537
REMARK  217  A    between atoms: _539  and  _541
REMARK  218  A    between atoms: _541  and  _542
REMARK  219  A    between atoms: _541  and  _544
REMARK  220  A    between atoms: _544  and  _545
REMARK  221  A    between atoms: _548  and  _550
REMARK  222  A    between atoms: _550  and  _551
REMARK  223  A    between atoms: _554  and  _556
REMARK  224  A    between atoms: _556  and  _557
REMARK  225  A    between atoms: _560  and  _562
REMARK  226  A    between atoms: _562  and  _563
REMARK  227  A    between atoms: _562  and  _565
REMARK  228  A    between atoms: _565  and  _566
REMARK  229  A    between atoms: _569  and  _571
REMARK  230  A    between atoms: _571  and  _572
REMARK  231  A    between atoms: _571  and  _574
REMARK  232  A    between atoms: _574  and  _575
REMARK  233  A    between atoms: _578  and  _580
REMARK  234  A    between atoms: _580  and  _581
REMARK  235  A    between atoms: _580  and  _583
REMARK  236  A    between atoms: _583  and  _584
REMARK  237  A    between atoms: _587  and  _589
REMARK  238  A    between atoms: _589  and  _590
REMARK  239  A    between atoms: _589  and  _592
REMARK  240  A    between atoms: _592  and  _593
REMARK  241  A    between atoms: _593  and  _594
REMARK  242  A    between atoms: _594  and  _595
REMARK  243  A    between atoms: _595  and  _596
REMARK  244  A    between atoms: _600  and  _602
REMARK  245  A    between atoms: _602  and  _603
REMARK  246  A    between atoms: _602  and  _605
REMARK  247  A    between atoms: _605  and  _606
REMARK  248  A    between atoms: _611  and  _613
REMARK  249  A    between atoms: _613  and  _614
REMARK  250  A    between atoms: _613  and  _616
REMARK  251  A    between atoms: _616  and  _617
REMARK  252  A    between atoms: _617  and  _618
REMARK  253  A    between atoms: _618  and  _619
REMARK  254  A    between atoms: _619  and  _620
REMARK  255  A    between atoms: _624  and  _626
REMARK  256  A    between atoms: _626  and  _627
REMARK  257  A    between atoms: _626  and  _629
REMARK  258  A    between atoms: _629  and  _630
REMARK  259  A    between atoms: _640  and  _642
REMARK  260  A    between atoms: _642  and  _643
REMARK  261  A    between atoms: _646  and  _648
REMARK  262  A    between atoms: _648  and  _649
REMARK  263  A    between atoms: _648  and  _651
REMARK  264  A    between atoms: _651  and  _652
REMARK  265  A    between atoms: _652  and  _653
REMARK  266  A    between atoms: _656  and  _658
REMARK  267  A    between atoms: _658  and  _659
REMARK  268  A    between atoms: _658  and  _661
REMARK  269  A    between atoms: _661  and  _662
REMARK  270  A    between atoms: _662  and  _663
REMARK  271  A    between atoms: _666  and  _668
REMARK  272  A    between atoms: _668  and  _669
REMARK  273  A    between atoms: _668  and  _671
REMARK  274  A    between atoms: _671  and  _672
REMARK  275  A    between atoms: _672  and  _673
REMARK  276  A    between atoms: _673  and  _674
REMARK  277  A    between atoms: _683  and  _685
REMARK  278  A    between atoms: _685  and  _686
REMARK  279  A    between atoms: _685  and  _688
REMARK  280  A    between atoms: _688  and  _689
REMARK  281  A    between atoms: _692  and  _694
REMARK  282  A    between atoms: _694  and  _695
REMARK  283  A    between atoms: _694  and  _697
REMARK  284  A    between atoms: _697  and  _698
REMARK  285  A    between atoms: _698  and  _699
REMARK  286  A    between atoms: _699  and  _700
REMARK  287  A    between atoms: _709  and  _711
REMARK  288  A    between atoms: _711  and  _712
REMARK  289  A    between atoms: _715  and  _717
REMARK  290  A    between atoms: _717  and  _718
REMARK  291  A    between atoms: _717  and  _720
REMARK  292  A    between atoms: _720  and  _721
REMARK  293  A    between atoms: _726  and  _727
REMARK  294  A    between atoms: _729  and  _731
REMARK  295  A    between atoms: _731  and  _732
REMARK  296  A    between atoms: _731  and  _734
REMARK  297  A    between atoms: _734  and  _735
REMARK  298  A    between atoms: _738  and  _740
REMARK  299  A    between atoms: _740  and  _741
REMARK  300  A    between atoms: _740  and  _743
REMARK  301  A    between atoms: _743  and  _744
REMARK  302  A    between atoms: _747  and  _749
REMARK  303  A    between atoms: _749  and  _750
REMARK  304  A    between atoms: _749  and  _752
REMARK  305  A    between atoms: _752  and  _753
REMARK  306  A    between atoms: _754  and  _756
REMARK  307  A    between atoms: _756  and  _757
REMARK  308  A    between atoms: _756  and  _759
REMARK  309  A    between atoms: _762  and  _764
REMARK  310  A    between atoms: _764  and  _765
REMARK  311  A    between atoms: _764  and  _767
REMARK  312  A    between atoms: _767  and  _768
REMARK  313  A    between atoms: _768  and  _769
REMARK  314  A    between atoms: _772  and  _774
REMARK  315  A    between atoms: _774  and  _775
REMARK  316  A    between atoms: _774  and  _777
REMARK  317  A    between atoms: _777  and  _778
REMARK  318  A    between atoms: _788  and  _790
REMARK  319  A    between atoms: _790  and  _791
REMARK  320  A    between atoms: _790  and  _793
REMARK  321  A    between atoms: _793  and  _794
REMARK  322  A    between atoms: _797  and  _799
REMARK  323  A    between atoms: _799  and  _800
REMARK  324  A    between atoms: _799  and  _802
REMARK  325  A    between atoms: _802  and  _803
REMARK  326  A    between atoms: _808  and  _809
REMARK                            x       y       z     vdW  Elec       q    Type
REMARK                         _______ _______ _______ _____ _____    ______ ____
ROOT
ATOM      1  CA  MET A   1       5.958 -13.422  -9.083  0.00  0.00    +0.134 C 
ENDROOT
BRANCH   1   2
ATOM      2  N   MET A   1       7.236 -14.064  -9.408  0.00  0.00    -0.239 NA
ATOM      3  H   MET A   1       7.712 -13.842 -10.305  0.00  0.00    +0.142 HD
ENDBRANCH   1   2
BRANCH   1   4
ATOM      4  C   MET A   1       4.763 -14.288  -9.499  0.00  0.00    +0.224 C 
ATOM      5  O   MET A   1       3.624 -13.985  -9.163  0.00  0.00    -0.287 OA
ENDBRANCH   1   4
BRANCH   1   6
ATOM      6  CB  MET A   1       5.855 -12.036  -9.730  0.00  0.00    +0.037 C 
BRANCH   6   7
ATOM      7  CG  MET A   1       6.505 -10.912  -8.927  0.00  0.00    +0.059 C 
BRANCH   7   8
ATOM      8  SD  MET A   1       5.639 -10.551  -7.369  0.00  0.00    -0.139 S 
ATOM      9  CE  MET A   1       4.093  -9.886  -7.967  0.00  0.00    +0.069 C 
ENDBRANCH   7   8
ENDBRANCH   6   7
ENDBRANCH   1   6
TORSDOF 5
REMARK  Name = ../refined-set-2016/3p9m/3p9m_pocket.pdb
REMARK  326 active torsions:
REMARK  status: ('A' for Active; 'I' for Inactive)
REMARK    1  A    between atoms: _1  and  _3
REMARK    2  A    between atoms: _3  and  _4
REMARK    3  A    between atoms: _3  and  _6
REMARK    4  A    between atoms: _6  and  _7
REMARK    5  A    between atoms: _10  and  _12
REMARK    6  A    between atoms: _12  and  _13
REMARK    7  A    between atoms: _12  and  _15
REMARK    8  A    between atoms: _15  and  _16
REMARK    9  A    between atoms: _16  and  _17
REMARK   10  A    between atoms: _17  and  _18
REMARK   11  A    between atoms: _27  and  _29
REMARK   12  A    between atoms: _29  and  _30
REMARK   13  A    between atoms: _29  and  _32
REMARK   14  A    between atoms: _32  and  _33
REMARK   15  A    between atoms: _38  and  _39
REMARK   16  A    between atoms: _41  and  _43
REMARK   17  A    between atoms: _43  and  _44
REMARK   18  A    between atoms: _43  and  _46
REMARK   19  A    between atoms: _46  and  _47
REMARK   20  A    between atoms: _53  and  _55
REMARK   21  A    between atoms: _55  and  _56
REMARK   22  A    between atoms: _55  and  _58
REMARK   23  A    between atoms: _61  and  _63
REMARK   24  A    between atoms: _63  and  _64
REMARK   25  A    between atoms: _63  and  _66
REMARK   26  A    between atoms: _66  and  _67
REMARK   27  A    between atoms: _70  and  _72
REMARK   28  A    between atoms: _72  and  _73
REMARK   29  A    between atoms: _72  and  _75
REMARK   30  A    between atoms: _75  and  _76
REMARK   31  A    between atoms: _81  and  _82
REMARK   32  A    between atoms: _84  and  _86
REMARK   33  A    between atoms: _86  and  _87
REMARK   34  A    between atoms: _86  and  _89
REMARK   35  A    between atoms: _89  and  _90
REMARK   36  A    between atoms: _90  and  _91
REMARK   37  A    between atoms: _93  and  _95
REMARK   38  A    between atoms: _95  and  _96
REMARK   39  A    between atoms: _95  and  _98
REMARK   40  A    between atoms: _98  and  _99
REMARK   41  A    between atoms: _99  and  _100
REMARK   42  A    between atoms: _103  and  _105
REMARK   43  A    between atoms: _105  and  _106
REMARK   44  A    between atoms: _105  and  _108
REMARK   45  A    between atoms: _111  and  _113
REMARK   46  A    between atoms: _113  and  _114
REMARK   47  A    between atoms: _116  and  _118
REMARK   48  A    between atoms: _118  and  _119
REMARK   49  A    between atoms: _118  and  _121
REMARK   50  A    between atoms: _121  and  _122
REMARK   51  A    between atoms: _128  and  _130
REMARK   52  A    between atoms: _130  and  _131
REMARK   53  A    between atoms: _130  and  _133
REMARK   54  A    between atoms: _136  and  _138
REMARK   55  A    between atoms: _138  and  _139
REMARK   56  A    between atoms: _138  and  _141
REMARK   57  A    between atoms: _141  and  _142
REMARK   58  A    between atoms: _148  and  _150
REMARK   59  A    between atoms: _150  and  _151
REMARK   60  A    between atoms: _150  and  _153
REMARK   61  A    between atoms: _153  and  _154
REMARK   62  A    between atoms: _159  and  _160
REMARK   63  A    between atoms: _162  and  _164
REMARK   64  A    between atoms: _164  and  _165
REMARK   65  A    between atoms: _164  and  _167
REMARK   66  A    between atoms: _167  and  _168
REMARK   67  A    between atoms: _168  and  _169
REMARK   68  A    between atoms: _171  and  _173
REMARK   69  A    between atoms: _173  and  _174
REMARK   70  A    between atoms: _173  and  _176
REMARK   71  A    between atoms: _176  and  _177
REMARK   72  A    between atoms: _182  and  _183
REMARK   73  A    between atoms: _185  and  _187
REMARK   74  A    between atoms: _187  and  _188
REMARK   75  A    between atoms: _187  and  _190
REMARK   76  A    between atoms: _190  and  _191
REMARK   77  A    between atoms: _191  and  _192
REMARK   78  A    between atoms: _192  and  _193
REMARK   79  A    between atoms: _202  and  _204
REMARK   80  A    between atoms: _204  and  _205
REMARK   81  A    between atoms: _204  and  _207
REMARK   82  A    between atoms: _207  and  _208
REMARK   83  A    between atoms: _208  and  _209
REMARK   84  A    between atoms: _212  and  _214
REMARK   85  A    between atoms: _214  and  _215
REMARK   86  A    between atoms: _214  and  _217
REMARK   87  A    between atoms: _217  and  _218
REMARK   88  A    between atoms: _218  and  _219
REMARK   89  A    between atoms: _219  and  _220
REMARK   90  A    between atoms: _220  and  _221
REMARK   91  A    between atoms: _225  and  _227
REMARK   92  A    between atoms: _227  and  _228
REMARK   93  A    between atoms: _231  and  _233
REMARK   94  A    between atoms: _233  and  _234
REMARK   95  A    between atoms: _236  and  _238
REMARK   96  A    between atoms: _238  and  _239
REMARK   97  A    between atoms: _238  and  _241
REMARK   98  A    between atoms: _241  and  _242
REMARK   99  A    between atoms: _247  and  _249
REMARK  100  A    between atoms: _249  and  _250
REMARK  101  A    between atoms: _249  and  _252
REMARK  102  A    between atoms: _252  and  _253
REMARK  103  A    between atoms: _253  and  _254
REMARK  104  A    between atoms: _257  and  _259
REMARK  105  A    between atoms: _259  and  _260
REMARK  106  A    between atoms: _259  and  _262
REMARK  107  A    between atoms: _262  and  _263
REMARK  108  A    between atoms: _263  and  _264
REMARK  109  A    between atoms: _269  and  _271
REMARK  110  A    between atoms: _271  and  _272
REMARK  111  A    between atoms: _271  and  _274
REMARK  112  A    between atoms: _274  and  _275
REMARK  113  A    between atoms: _277  and  _279
REMARK  114  A    between atoms: _279  and  _280
REMARK  115  A    between atoms: _279  and  _282
REMARK  116  A    between atoms: _282  and  _283
REMARK  117  A    between atoms: _289  and  _291
REMARK  118  A    between atoms: _291  and  _292
REMARK  119  A    between atoms: _291  and  _294
REMARK  120  A    between atoms: _294  and  _295
REMARK  121  A    between atoms: _295  and  _296
REMARK  122  A    between atoms: _296  and  _297
REMARK  123  A    between atoms: _306  and  _308
REMARK  124  A    between atoms: _308  and  _309
REMARK  125  A    between atoms: _308  and  _311
REMARK  126  A    between atoms: _314  and  _316
REMARK  127  A    between atoms: _316  and  _317
REMARK  128  A    between atoms: _316  and  _319
REMARK  129  A    between atoms: _319  and  _320
REMARK  130  A    between atoms: _323  and  _325
REMARK  131  A    between atoms: _325  and  _326
REMARK  132  A    between atoms: _325  and  _328
REMARK  133  A    between atoms: _328  and  _329
REMARK  134  A    between atoms: _332  and  _334
REMARK  135  A    between atoms: _334  and  _335
REMARK  136  A    between atoms: _334  and  _337
REMARK  137  A    between atoms: _337  and  _338
REMARK  138  A    between atoms: _338  and  _339
REMARK  139  A    between atoms: _339  and  _340
REMARK  140  A    between atoms: _349  and  _351
REMARK  141  A    between atoms: _351  and  _352
REMARK  142  A    between atoms: _351  and  _354
REMARK  143  A    between atoms: _354  and  _355
REMARK  144  A    between atoms: _358  and  _360
REMARK  145  A    between atoms: _360  and  _361
REMARK  146  A    between atoms: _360  and  _363
REMARK  147  A    between atoms: _363  and  _364
REMARK  148  A    between atoms: _367  and  _369
REMARK  149  A    between atoms: _369  and  _370
REMARK  150  A    between atoms: _369  and  _372
REMARK  151  A    between atoms: _372  and  _373
REMARK  152  A    between atoms: _378  and  _379
REMARK  153  A    between atoms: _381  and  _383
REMARK  154  A    between atoms: _383  and  _384
REMARK  155  A    between atoms: _383  and  _386
REMARK  156  A    between atoms: _386  and  _387
REMARK  157  A    between atoms: _392  and  _393
REMARK  158  A    between atoms: _395  and  _397
REMARK  159  A    between atoms: _397  and  _398
REMARK  160  A    between atoms: _397  and  _400
REMARK  161  A    between atoms: _400  and  _401
REMARK  162  A    between atoms: _404  and  _406
REMARK  163  A    between atoms: _406  and  _407
REMARK  164  A    between atoms: _406  and  _409
REMARK  165  A    between atoms: _409  and  _410
REMARK  166  A    between atoms: _410  and  _411
REMARK  167  A    between atoms: _416  and  _418
REMARK  168  A    between atoms: _418  and  _419
REMARK  169  A    between atoms: _418  and  _421
REMARK  170  A    between atoms: _424  and  _426
REMARK  171  A    between atoms: _426  and  _427
REMARK  172  A    between atoms: _426  and  _429
REMARK  173  A    between atoms: _429  and  _430
REMARK  174  A    between atoms: _433  and  _435
REMARK  175  A    between atoms: _435  and  _436
REMARK  176  A    between atoms: _435  and  _438
REMARK  177  A    between atoms: _438  and  _439
REMARK  178  A    between atoms: _441  and  _443
REMARK  179  A    between atoms: _443  and  _444
REMARK  180  A    between atoms: _446  and  _448
REMARK  181  A    between atoms: _448  and  _449
REMARK  182  A    between atoms: _448  and  _451
REMARK  183  A    between atoms: _451  and  _452
REMARK  184  A    between atoms: _452  and  _753
REMARK  185  A    between atoms: _453  and  _455
REMARK  186  A    between atoms: _455  and  _456
REMARK  187  A    between atoms: _455  and  _458
REMARK  188  A    between atoms: _458  and  _459
REMARK  189  A    between atoms: _464  and  _465
REMARK  190  A    between atoms: _467  and  _469
REMARK  191  A    between atoms: _469  and  _470
REMARK  192  A    between atoms: _469  and  _472
REMARK  193  A    between atoms: _472  and  _473
REMARK  194  A    between atoms: _473  and  _474
REMARK  195  A    between atoms: _479  and  _481
REMARK  196  A    between atoms: _481  and  _482
REMARK  197  A    between atoms: _481  and  _484
REMARK  198  A    between atoms: _484  and  _485
REMARK  199  A    between atoms: _485  and  _486
REMARK  200  A    between atoms: _491  and  _493
REMARK  201  A    between atoms: _493  and  _494
REMARK  202  A    between atoms: _493  and  _496
REMARK  203  A    between atoms: _496  and  _497
REMARK  204  A    between atoms: _502  and  _503
REMARK  205  A    between atoms: _505  and  _507
REMARK  206  A    between atoms: _507  and  _508
REMARK  207  A    between atoms: _511  and  _513
REMARK  208  A    between atoms: _513  and  _514
REMARK  209  A    between atoms: _513  and  _516
REMARK  210  A    between atoms: _516  and  _517
REMARK  211  A    between atoms: _522  and  _523
REMARK  212  A    between atoms: _525  and  _527
REMARK  213  A    between atoms: _527  and  _528
REMARK  214  A    between atoms: _527  and  _530
REMARK  215  A    between atoms: _530  and  _531
REMARK  216  A    between atoms: _536  and  _537
REMARK  217  A    between atoms: _539  and  _541
REMARK  218  A    between atoms: _541  and  _542
REMARK  219  A    between atoms: _541  and  _544
REMARK  220  A    between atoms: _544  and  _545
REMARK  221  A    between atoms: _548  and  _550
REMARK  222  A    between atoms: _550  and  _551
REMARK  223  A    between atoms: _554  and  _556
REMARK  224  A    between atoms: _556  and  _557
REMARK  225  A    between atoms: _560  and  _562
REMARK  226  A    between atoms: _562  and  _563
REMARK  227  A    between atoms: _562  and  _565
REMARK  228  A    between atoms: _565  and  _566
REMARK  229  A    between atoms: _569  and  _571
REMARK  230  A    between atoms: _571  and  _572
REMARK  231  A    between atoms: _571  and  _574
REMARK  232  A    between atoms: _574  and  _575
REMARK  233  A    between atoms: _578  and  _580
REMARK  234  A    between atoms: _580  and  _581
REMARK  235  A    between atoms: _580  and  _583
REMARK  236  A    between atoms: _583  and  _584
REMARK  237  A    between atoms: _587  and  _589
REMARK  238  A    between atoms: _589  and  _590
REMARK  239  A    between atoms: _589  and  _592
REMARK  240  A    between atoms: _592  and  _593
REMARK  241  A    between atoms: _593  and  _594
REMARK  242  A    between atoms: _594  and  _595
REMARK  243  A    between atoms: _595  and  _596
REMARK  244  A    between atoms: _600  and  _602
REMARK  245  A    between atoms: _602  and  _603
REMARK  246  A    between atoms: _602  and  _605
REMARK  247  A    between atoms: _605  and  _606
REMARK  248  A    between atoms: _611  and  _613
REMARK  249  A    between atoms: _613  and  _614
REMARK  250  A    between atoms: _613  and  _616
REMARK  251  A    between atoms: _616  and  _617
REMARK  252  A    between atoms: _617  and  _618
REMARK  253  A    between atoms: _618  and  _619
REMARK  254  A    between atoms: _619  and  _620
REMARK  255  A    between atoms: _624  and  _626
REMARK  256  A    between atoms: _626  and  _627
REMARK  257  A    between atoms: _626  and  _629
REMARK  258  A    between atoms: _629  and  _630
REMARK  259  A    between atoms: _640  and  _642
REMARK  260  A    between atoms: _642  and  _643
REMARK  261  A    between atoms: _646  and  _648
REMARK  262  A    between atoms: _648  and  _649
REMARK  263  A    between atoms: _648  and  _651
REMARK  264  A    between atoms: _651  and  _652
REMARK  265  A    between atoms: _652  and  _653
REMARK  266  A    between atoms: _656  and  _658
REMARK  267  A    between atoms: _658  and  _659
REMARK  268  A    between atoms: _658  and  _661
REMARK  269  A    between atoms: _661  and  _662
REMARK  270  A    between atoms: _662  and  _663
REMARK  271  A    between atoms: _666  and  _668
REMARK  272  A    between atoms: _668  and  _669
REMARK  273  A    between atoms: _668  and  _671
REMARK  274  A    between atoms: _671  and  _672
REMARK  275  A    between atoms: _672  and  _673
REMARK  276  A    between atoms: _673  and  _674
REMARK  277  A    between atoms: _683  and  _685
REMARK  278  A    between atoms: _685  and  _686
REMARK  279  A    between atoms: _685  and  _688
REMARK  280  A    between atoms: _688  and  _689
REMARK  281  A    between atoms: _692  and  _694
REMARK  282  A    between atoms: _694  and  _695
REMARK  283  A    between atoms: _694  and  _697
REMARK  284  A    between atoms: _697  and  _698
REMARK  285  A    between atoms: _698  and  _699
REMARK  286  A    between atoms: _699  and  _700
REMARK  287  A    between atoms: _709  and  _711
REMARK  288  A    between atoms: _711  and  _712
REMARK  289  A    between atoms: _715  and  _717
REMARK  290  A    between atoms: _717  and  _718
REMARK  291  A    between atoms: _717  and  _720
REMARK  292  A    between atoms: _720  and  _721
REMARK  293  A    between atoms: _726  and  _727
REMARK  294  A    between atoms: _729  and  _731
REMARK  295  A    between atoms: _731  and  _732
REMARK  296  A    between atoms: _731  and  _734
REMARK  297  A    between atoms: _734  and  _735
REMARK  298  A    between atoms: _738  and  _740
REMARK  299  A    between atoms: _740  and  _741
REMARK  300  A    between atoms: _740  and  _743
REMARK  301  A    between atoms: _743  and  _744
REMARK  302  A    between atoms: _747  and  _749
REMARK  303  A    between atoms: _749  and  _750
REMARK  304  A    between atoms: _749  and  _752
REMARK  305  A    between atoms: _752  and  _753
REMARK  306  A    between atoms: _754  and  _756
REMARK  307  A    between atoms: _756  and  _757
REMARK  308  A    between atoms: _756  and  _759
REMARK  309  A    between atoms: _762  and  _764
REMARK  310  A    between atoms: _764  and  _765
REMARK  311  A    between atoms: _764  and  _767
REMARK  312  A    between atoms: _767  and  _768
REMARK  313  A    between atoms: _768  and  _769
REMARK  314  A    between atoms: _772  and  _774
REMARK  315  A    between atoms: _774  and  _775
REMARK  316  A    between atoms: _774  and  _777
REMARK  317  A    between atoms: _777  and  _778
REMARK  318  A    between atoms: _788  and  _790
REMARK  319  A    between atoms: _790  and  _791
REMARK  320  A    between atoms: _790  and  _793
REMARK  321  A    between atoms: _793  and  _794
REMARK  322  A    between atoms: _797  and  _799
REMARK  323  A    between atoms: _799  and  _800
REMARK  324  A    between atoms: _799  and  _802
REMARK  325  A    between atoms: _802  and  _803
REMARK  326  A    between atoms: _808  and  _809
REMARK                            x       y       z     vdW  Elec       q    Type
REMARK                         _______ _______ _______ _____ _____    ______ ____
ROOT
ATOM      1  CG  TYR A   1      -1.096  -9.901  -6.518  0.00  0.00    -0.020 A 
ATOM      2  CD2 TYR A   1      -0.709  -9.152  -5.416  0.00  0.00    -0.001 A 
ATOM      3  CE2 TYR A   1       0.302  -8.203  -5.508  0.00  0.00    +0.036 A 
ATOM      4  CZ  TYR A   1       0.948  -8.004  -6.717  0.00  0.00    +0.134 A 
ATOM      5  CE1 TYR A   1       0.590  -8.739  -7.832  0.00  0.00    +0.036 A 
ATOM      6  CD1 TYR A   1      -0.438  -9.675  -7.731  0.00  0.00    -0.001 A 
ENDROOT
BRANCH   4   7
ATOM      7  OH  TYR A   1       1.940  -7.058  -6.797  0.00  0.00    -0.506 OA
ATOM      8  HH  TYR A   1       2.062  -6.634  -5.911  0.00  0.00    +0.292 HD
ENDBRANCH   4   7
BRANCH   1   9
ATOM      9  CB  TYR A   1      -2.197 -10.937  -6.406  0.00  0.00    +0.051 C 
BRANCH   9  10
ATOM     10  CA  TYR A   1      -3.607 -10.394  -6.658  0.00  0.00    +0.137 C 
BRANCH  10  11
ATOM     11  N   TYR A   1      -4.609 -11.466  -6.630  0.00  0.00    -0.239 NA
ATOM     12  H   TYR A   1      -4.312 -12.455  -6.507  0.00  0.00    +0.142 HD
ENDBRANCH  10  11
BRANCH  10  13
ATOM     13  C   TYR A   1      -3.665  -9.670  -8.000  0.00  0.00    +0.224 C 
ATOM     14  O   TYR A   1      -3.788  -8.446  -8.066  0.00  0.00    -0.287 OA
ENDBRANCH  10  13
ENDBRANCH   9  10
ENDBRANCH   1   9
TORSDOF 5
REMARK  Name = ../refined-set-2016/3p9m/3p9m_pocket.pdb
REMARK  326 active torsions:
REMARK  status: ('A' for Active; 'I' for Inactive)
REMARK    1  A    between atoms: _1  and  _3
REMARK    2  A    between atoms: _3  and  _4
REMARK    3  A    between atoms: _3  and  _6
REMARK    4  A    between atoms: _6  and  _7
REMARK    5  A    between atoms: _10  and  _12
REMARK    6  A    between atoms: _12  and  _13
REMARK    7  A    between atoms: _12  and  _15
REMARK    8  A    between atoms: _15  and  _16
REMARK    9  A    between atoms: _16  and  _17
REMARK   10  A    between atoms: _17  and  _18
REMARK   11  A    between atoms: _27  and  _29
REMARK   12  A    between atoms: _29  and  _30
REMARK   13  A    between atoms: _29  and  _32
REMARK   14  A    between atoms: _32  and  _33
REMARK   15  A    between atoms: _38  and  _39
REMARK   16  A    between atoms: _41  and  _43
REMARK   17  A    between atoms: _43  and  _44
REMARK   18  A    between atoms: _43  and  _46
REMARK   19  A    between atoms: _46  and  _47
REMARK   20  A    between atoms: _53  and  _55
REMARK   21  A    between atoms: _55  and  _56
REMARK   22  A    between atoms: _55  and  _58
REMARK   23  A    between atoms: _61  and  _63
REMARK   24  A    between atoms: _63  and  _64
REMARK   25  A    between atoms: _63  and  _66
REMARK   26  A    between atoms: _66  and  _67
REMARK   27  A    between atoms: _70  and  _72
REMARK   28  A    between atoms: _72  and  _73
REMARK   29  A    between atoms: _72  and  _75
REMARK   30  A    between atoms: _75  and  _76
REMARK   31  A    between atoms: _81  and  _82
REMARK   32  A    between atoms: _84  and  _86
REMARK   33  A    between atoms: _86  and  _87
REMARK   34  A    between atoms: _86  and  _89
REMARK   35  A    between atoms: _89  and  _90
REMARK   36  A    between atoms: _90  and  _91
REMARK   37  A    between atoms: _93  and  _95
REMARK   38  A    between atoms: _95  and  _96
REMARK   39  A    between atoms: _95  and  _98
REMARK   40  A    between atoms: _98  and  _99
REMARK   41  A    between atoms: _99  and  _100
REMARK   42  A    between atoms: _103  and  _105
REMARK   43  A    between atoms: _105  and  _106
REMARK   44  A    between atoms: _105  and  _108
REMARK   45  A    between atoms: _111  and  _113
REMARK   46  A    between atoms: _113  and  _114
REMARK   47  A    between atoms: _116  and  _118
REMARK   48  A    between atoms: _118  and  _119
REMARK   49  A    between atoms: _118  and  _121
REMARK   50  A    between atoms: _121  and  _122
REMARK   51  A    between atoms: _128  and  _130
REMARK   52  A    between atoms: _130  and  _131
REMARK   53  A    between atoms: _130  and  _133
REMARK   54  A    between atoms: _136  and  _138
REMARK   55  A    between atoms: _138  and  _139
REMARK   56  A    between atoms: _138  and  _141
REMARK   57  A    between atoms: _141  and  _142
REMARK   58  A    between atoms: _148  and  _150
REMARK   59  A    between atoms: _150  and  _151
REMARK   60  A    between atoms: _150  and  _153
REMARK   61  A    between atoms: _153  and  _154
REMARK   62  A    between atoms: _159  and  _160
REMARK   63  A    between atoms: _162  and  _164
REMARK   64  A    between atoms: _164  and  _165
REMARK   65  A    between atoms: _164  and  _167
REMARK   66  A    between atoms: _167  and  _168
REMARK   67  A    between atoms: _168  and  _169
REMARK   68  A    between atoms: _171  and  _173
REMARK   69  A    between atoms: _173  and  _174
REMARK   70  A    between atoms: _173  and  _176
REMARK   71  A    between atoms: _176  and  _177
REMARK   72  A    between atoms: _182  and  _183
REMARK   73  A    between atoms: _185  and  _187
REMARK   74  A    between atoms: _187  and  _188
REMARK   75  A    between atoms: _187  and  _190
REMARK   76  A    between atoms: _190  and  _191
REMARK   77  A    between atoms: _191  and  _192
REMARK   78  A    between atoms: _192  and  _193
REMARK   79  A    between atoms: _202  and  _204
REMARK   80  A    between atoms: _204  and  _205
REMARK   81  A    between atoms: _204  and  _207
REMARK   82  A    between atoms: _207  and  _208
REMARK   83  A    between atoms: _208  and  _209
REMARK   84  A    between atoms: _212  and  _214
REMARK   85  A    between atoms: _214  and  _215
REMARK   86  A    between atoms: _214  and  _217
REMARK   87  A    between atoms: _217  and  _218
REMARK   88  A    between atoms: _218  and  _219
REMARK   89  A    between atoms: _219  and  _220
REMARK   90  A    between atoms: _220  and  _221
REMARK   91  A    between atoms: _225  and  _227
REMARK   92  A    between atoms: _227  and  _228
REMARK   93  A    between atoms: _231  and  _233
REMARK   94  A    between atoms: _233  and  _234
REMARK   95  A    between atoms: _236  and  _238
REMARK   96  A    between atoms: _238  and  _239
REMARK   97  A    between atoms: _238  and  _241
REMARK   98  A    between atoms: _241  and  _242
REMARK   99  A    between atoms: _247  and  _249
REMARK  100  A    between atoms: _249  and  _250
REMARK  101  A    between atoms: _249  and  _252
REMARK  102  A    between atoms: _252  and  _253
REMARK  103  A    between atoms: _253  and  _254
REMARK  104  A    between atoms: _257  and  _259
REMARK  105  A    between atoms: _259  and  _260
REMARK  106  A    between atoms: _259  and  _262
REMARK  107  A    between atoms: _262  and  _263
REMARK  108  A    between atoms: _263  and  _264
REMARK  109  A    between atoms: _269  and  _271
REMARK  110  A    between atoms: _271  and  _272
REMARK  111  A    between atoms: _271  and  _274
REMARK  112  A    between atoms: _274  and  _275
REMARK  113  A    between atoms: _277  and  _279
REMARK  114  A    between atoms: _279  and  _280
REMARK  115  A    between atoms: _279  and  _282
REMARK  116  A    between atoms: _282  and  _283
REMARK  117  A    between atoms: _289  and  _291
REMARK  118  A    between atoms: _291  and  _292
REMARK  119  A    between atoms: _291  and  _294
REMARK  120  A    between atoms: _294  and  _295
REMARK  121  A    between atoms: _295  and  _296
REMARK  122  A    between atoms: _296  and  _297
REMARK  123  A    between atoms: _306  and  _308
REMARK  124  A    between atoms: _308  and  _309
REMARK  125  A    between atoms: _308  and  _311
REMARK  126  A    between atoms: _314  and  _316
REMARK  127  A    between atoms: _316  and  _317
REMARK  128  A    between atoms: _316  and  _319
REMARK  129  A    between atoms: _319  and  _320
REMARK  130  A    between atoms: _323  and  _325
REMARK  131  A    between atoms: _325  and  _326
REMARK  132  A    between atoms: _325  and  _328
REMARK  133  A    between atoms: _328  and  _329
REMARK  134  A    between atoms: _332  and  _334
REMARK  135  A    between atoms: _334  and  _335
REMARK  136  A    between atoms: _334  and  _337
REMARK  137  A    between atoms: _337  and  _338
REMARK  138  A    between atoms: _338  and  _339
REMARK  139  A    between atoms: _339  and  _340
REMARK  140  A    between atoms: _349  and  _351
REMARK  141  A    between atoms: _351  and  _352
REMARK  142  A    between atoms: _351  and  _354
REMARK  143  A    between atoms: _354  and  _355
REMARK  144  A    between atoms: _358  and  _360
REMARK  145  A    between atoms: _360  and  _361
REMARK  146  A    between atoms: _360  and  _363
REMARK  147  A    between atoms: _363  and  _364
REMARK  148  A    between atoms: _367  and  _369
REMARK  149  A    between atoms: _369  and  _370
REMARK  150  A    between atoms: _369  and  _372
REMARK  151  A    between atoms: _372  and  _373
REMARK  152  A    between atoms: _378  and  _379
REMARK  153  A    between atoms: _381  and  _383
REMARK  154  A    between atoms: _383  and  _384
REMARK  155  A    between atoms: _383  and  _386
REMARK  156  A    between atoms: _386  and  _387
REMARK  157  A    between atoms: _392  and  _393
REMARK  158  A    between atoms: _395  and  _397
REMARK  159  A    between atoms: _397  and  _398
REMARK  160  A    between atoms: _397  and  _400
REMARK  161  A    between atoms: _400  and  _401
REMARK  162  A    between atoms: _404  and  _406
REMARK  163  A    between atoms: _406  and  _407
REMARK  164  A    between atoms: _406  and  _409
REMARK  165  A    between atoms: _409  and  _410
REMARK  166  A    between atoms: _410  and  _411
REMARK  167  A    between atoms: _416  and  _418
REMARK  168  A    between atoms: _418  and  _419
REMARK  169  A    between atoms: _418  and  _421
REMARK  170  A    between atoms: _424  and  _426
REMARK  171  A    between atoms: _426  and  _427
REMARK  172  A    between atoms: _426  and  _429
REMARK  173  A    between atoms: _429  and  _430
REMARK  174  A    between atoms: _433  and  _435
REMARK  175  A    between atoms: _435  and  _436
REMARK  176  A    between atoms: _435  and  _438
REMARK  177  A    between atoms: _438  and  _439
REMARK  178  A    between atoms: _441  and  _443
REMARK  179  A    between atoms: _443  and  _444
REMARK  180  A    between atoms: _446  and  _448
REMARK  181  A    between atoms: _448  and  _449
REMARK  182  A    between atoms: _448  and  _451
REMARK  183  A    between atoms: _451  and  _452
REMARK  184  A    between atoms: _452  and  _753
REMARK  185  A    between atoms: _453  and  _455
REMARK  186  A    between atoms: _455  and  _456
REMARK  187  A    between atoms: _455  and  _458
REMARK  188  A    between atoms: _458  and  _459
REMARK  189  A    between atoms: _464  and  _465
REMARK  190  A    between atoms: _467  and  _469
REMARK  191  A    between atoms: _469  and  _470
REMARK  192  A    between atoms: _469  and  _472
REMARK  193  A    between atoms: _472  and  _473
REMARK  194  A    between atoms: _473  and  _474
REMARK  195  A    between atoms: _479  and  _481
REMARK  196  A    between atoms: _481  and  _482
REMARK  197  A    between atoms: _481  and  _484
REMARK  198  A    between atoms: _484  and  _485
REMARK  199  A    between atoms: _485  and  _486
REMARK  200  A    between atoms: _491  and  _493
REMARK  201  A    between atoms: _493  and  _494
REMARK  202  A    between atoms: _493  and  _496
REMARK  203  A    between atoms: _496  and  _497
REMARK  204  A    between atoms: _502  and  _503
REMARK  205  A    between atoms: _505  and  _507
REMARK  206  A    between atoms: _507  and  _508
REMARK  207  A    between atoms: _511  and  _513
REMARK  208  A    between atoms: _513  and  _514
REMARK  209  A    between atoms: _513  and  _516
REMARK  210  A    between atoms: _516  and  _517
REMARK  211  A    between atoms: _522  and  _523
REMARK  212  A    between atoms: _525  and  _527
REMARK  213  A    between atoms: _527  and  _528
REMARK  214  A    between atoms: _527  and  _530
REMARK  215  A    between atoms: _530  and  _531
REMARK  216  A    between atoms: _536  and  _537
REMARK  217  A    between atoms: _539  and  _541
REMARK  218  A    between atoms: _541  and  _542
REMARK  219  A    between atoms: _541  and  _544
REMARK  220  A    between atoms: _544  and  _545
REMARK  221  A    between atoms: _548  and  _550
REMARK  222  A    between atoms: _550  and  _551
REMARK  223  A    between atoms: _554  and  _556
REMARK  224  A    between atoms: _556  and  _557
REMARK  225  A    between atoms: _560  and  _562
REMARK  226  A    between atoms: _562  and  _563
REMARK  227  A    between atoms: _562  and  _565
REMARK  228  A    between atoms: _565  and  _566
REMARK  229  A    between atoms: _569  and  _571
REMARK  230  A    between atoms: _571  and  _572
REMARK  231  A    between atoms: _571  and  _574
REMARK  232  A    between atoms: _574  and  _575
REMARK  233  A    between atoms: _578  and  _580
REMARK  234  A    between atoms: _580  and  _581
REMARK  235  A    between atoms: _580  and  _583
REMARK  236  A    between atoms: _583  and  _584
REMARK  237  A    between atoms: _587  and  _589
REMARK  238  A    between atoms: _589  and  _590
REMARK  239  A    between atoms: _589  and  _592
REMARK  240  A    between atoms: _592  and  _593
REMARK  241  A    between atoms: _593  and  _594
REMARK  242  A    between atoms: _594  and  _595
REMARK  243  A    between atoms: _595  and  _596
REMARK  244  A    between atoms: _600  and  _602
REMARK  245  A    between atoms: _602  and  _603
REMARK  246  A    between atoms: _602  and  _605
REMARK  247  A    between atoms: _605  and  _606
REMARK  248  A    between atoms: _611  and  _613
REMARK  249  A    between atoms: _613  and  _614
REMARK  250  A    between atoms: _613  and  _616
REMARK  251  A    between atoms: _616  and  _617
REMARK  252  A    between atoms: _617  and  _618
REMARK  253  A    between atoms: _618  and  _619
REMARK  254  A    between atoms: _619  and  _620
REMARK  255  A    between atoms: _624  and  _626
REMARK  256  A    between atoms: _626  and  _627
REMARK  257  A    between atoms: _626  and  _629
REMARK  258  A    between atoms: _629  and  _630
REMARK  259  A    between atoms: _640  and  _642
REMARK  260  A    between atoms: _642  and  _643
REMARK  261  A    between atoms: _646  and  _648
REMARK  262  A    between atoms: _648  and  _649
REMARK  263  A    between atoms: _648  and  _651
REMARK  264  A    between atoms: _651  and  _652
REMARK  265  A    between atoms: _652  and  _653
REMARK  266  A    between atoms: _656  and  _658
REMARK  267  A    between atoms: _658  and  _659
REMARK  268  A    between atoms: _658  and  _661
REMARK  269  A    between atoms: _661  and  _662
REMARK  270  A    between atoms: _662  and  _663
REMARK  271  A    between atoms: _666  and  _668
REMARK  272  A    between atoms: _668  and  _669
REMARK  273  A    between atoms: _668  and  _671
REMARK  274  A    between atoms: _671  and  _672
REMARK  275  A    between atoms: _672  and  _673
REMARK  276  A    between atoms: _673  and  _674
REMARK  277  A    between atoms: _683  and  _685
REMARK  278  A    between atoms: _685  and  _686
REMARK  279  A    between atoms: _685  and  _688
REMARK  280  A    between atoms: _688  and  _689
REMARK  281  A    between atoms: _692  and  _694
REMARK  282  A    between atoms: _694  and  _695
REMARK  283  A    between atoms: _694  and  _697
REMARK  284  A    between atoms: _697  and  _698
REMARK  285  A    between atoms: _698  and  _699
REMARK  286  A    between atoms: _699  and  _700
REMARK  287  A    between atoms: _709  and  _711
REMARK  288  A    between atoms: _711  and  _712
REMARK  289  A    between atoms: _715  and  _717
REMARK  290  A    between atoms: _717  and  _718
REMARK  291  A    between atoms: _717  and  _720
REMARK  292  A    between atoms: _720  and  _721
REMARK  293  A    between atoms: _726  and  _727
REMARK  294  A    between atoms: _729  and  _731
REMARK  295  A    between atoms: _731  and  _732
REMARK  296  A    between atoms: _731  and  _734
REMARK  297  A    between atoms: _734  and  _735
REMARK  298  A    between atoms: _738  and  _740
REMARK  299  A    between atoms: _740  and  _741
REMARK  300  A    between atoms: _740  and  _743
REMARK  301  A    between atoms: _743  and  _744
REMARK  302  A    between atoms: _747  and  _749
REMARK  303  A    between atoms: _749  and  _750
REMARK  304  A    between atoms: _749  and  _752
REMARK  305  A    between atoms: _752  and  _753
REMARK  306  A    between atoms: _754  and  _756
REMARK  307  A    between atoms: _756  and  _757
REMARK  308  A    between atoms: _756  and  _759
REMARK  309  A    between atoms: _762  and  _764
REMARK  310  A    between atoms: _764  and  _765
REMARK  311  A    between atoms: _764  and  _767
REMARK  312  A    between atoms: _767  and  _768
REMARK  313  A    between atoms: _768  and  _769
REMARK  314  A    between atoms: _772  and  _774
REMARK  315  A    between atoms: _774  and  _775
REMARK  316  A    between atoms: _774  and  _777
REMARK  317  A    between atoms: _777  and  _778
REMARK  318  A    between atoms: _788  and  _790
REMARK  319  A    between atoms: _790  and  _791
REMARK  320  A    between atoms: _790  and  _793
REMARK  321  A    between atoms: _793  and  _794
REMARK  322  A    between atoms: _797  and  _799
REMARK  323  A    between atoms: _799  and  _800
REMARK  324  A    between atoms: _799  and  _802
REMARK  325  A    between atoms: _802  and  _803
REMARK  326  A    between atoms: _808  and  _809
REMARK                            x       y       z     vdW  Elec       q    Type
REMARK                         _______ _______ _______ _____ _____    ______ ____
ROOT
ATOM      1  CA  ARG A   1      -6.968  -6.493  -7.635  0.00  0.00    +0.145 C 
ENDROOT
BRANCH   1   2
ATOM      2  C   ARG A   1      -6.049  -5.378  -8.151  0.00  0.00    +0.238 C 
ATOM      3  O   ARG A   1      -6.479  -4.229  -8.261  0.00  0.00    -0.274 OA
ATOM      4  N   GLU A   2      -4.797  -5.722  -8.465  0.00  0.00    -0.298 N 
ATOM      5  H   GLU A   2      -4.485  -6.697  -8.283  0.00  0.00    +0.150 HD
BRANCH   4   6
ATOM      6  CA  GLU A   2      -3.845  -4.774  -9.058  0.00  0.00    +0.137 C 
BRANCH   6   7
ATOM      7  C   GLU A   2      -4.323  -4.249 -10.426  0.00  0.00    +0.227 C 
ATOM      8  O   GLU A   2      -4.135  -3.077 -10.754  0.00  0.00    -0.286 OA
ENDBRANCH   6   7
BRANCH   6   9
ATOM      9  CB  GLU A   2      -2.465  -5.431  -9.211  0.00  0.00    +0.039 C 
BRANCH   9  10
ATOM     10  CG  GLU A   2      -1.799  -5.848  -7.878  0.00  0.00    +0.116 C 
BRANCH  10  11
ATOM     11  CD  GLU A   2      -1.618  -4.687  -6.904  0.00  0.00    +0.365 C 
ATOM     12  OE2 GLU A   2      -1.578  -4.930  -5.675  0.00  0.00    -0.246 OA
ATOM     13  OE1 GLU A   2      -1.505  -3.525  -7.357  0.00  0.00    -0.246 OA
ENDBRANCH  10  11
ENDBRANCH   9  10
ENDBRANCH   6   9
ENDBRANCH   4   6
ENDBRANCH   1   2
BRANCH   1  14
ATOM     14  N   ARG A   1      -6.895  -7.698  -8.452  0.00  0.00    -0.238 NA
ATOM     15  H   ARG A   1      -6.507  -8.578  -8.056  0.00  0.00    +0.142 HD
ENDBRANCH   1  14
BRANCH   1  16
ATOM     16  CB  ARG A   1      -6.685  -6.806  -6.169  0.00  0.00    +0.030 C 
BRANCH  16  17
ATOM     17  CG  ARG A   1      -6.852  -5.625  -5.237  0.00  0.00    +0.045 C 
BRANCH  17  18
ATOM     18  CD  ARG A   1      -6.515  -6.044  -3.821  0.00  0.00    +0.174 C 
BRANCH  18  19
ATOM     19  NE  ARG A   1      -5.313  -6.866  -3.828  0.00  0.00    -0.265 N 
ATOM     20  HE  ARG A   1      -5.392  -7.862  -3.539  0.00  0.00    +0.259 HD
ATOM     21  CZ  ARG A   1      -4.120  -6.404  -4.186  0.00  0.00    +0.342 C 
ATOM     22  NH2 ARG A   1      -3.058  -7.200  -4.184  0.00  0.00    -0.292 N 
ATOM     23 HH21 ARG A   1      -3.155  -8.196  -3.900  0.00  0.00    +0.255 HD
ATOM     24 HH22 ARG A   1      -2.129  -6.828  -4.466  0.00  0.00    +0.255 HD
ATOM     25  NH1 ARG A   1      -3.994  -5.132  -4.541  0.00  0.00    -0.292 N 
ATOM     26 HH11 ARG A   1      -4.825  -4.506  -4.537  0.00  0.00    +0.255 HD
ATOM     27 HH12 ARG A   1      -3.064  -4.760  -4.823  0.00  0.00    +0.255 HD
ENDBRANCH  18  19
ENDBRANCH  17  18
ENDBRANCH  16  17
ENDBRANCH   1  16
TORSDOF 11
REMARK  Name = ../refined-set-2016/3p9m/3p9m_pocket.pdb
REMARK  326 active torsions:
REMARK  status: ('A' for Active; 'I' for Inactive)
REMARK    1  A    between atoms: _1  and  _3
REMARK    2  A    between atoms: _3  and  _4
REMARK    3  A    between atoms: _3  and  _6
REMARK    4  A    between atoms: _6  and  _7
REMARK    5  A    between atoms: _10  and  _12
REMARK    6  A    between atoms: _12  and  _13
REMARK    7  A    between atoms: _12  and  _15
REMARK    8  A    between atoms: _15  and  _16
REMARK    9  A    between atoms: _16  and  _17
REMARK   10  A    between atoms: _17  and  _18
REMARK   11  A    between atoms: _27  and  _29
REMARK   12  A    between atoms: _29  and  _30
REMARK   13  A    between atoms: _29  and  _32
REMARK   14  A    between atoms: _32  and  _33
REMARK   15  A    between atoms: _38  and  _39
REMARK   16  A    between atoms: _41  and  _43
REMARK   17  A    between atoms: _43  and  _44
REMARK   18  A    between atoms: _43  and  _46
REMARK   19  A    between atoms: _46  and  _47
REMARK   20  A    between atoms: _53  and  _55
REMARK   21  A    between atoms: _55  and  _56
REMARK   22  A    between atoms: _55  and  _58
REMARK   23  A    between atoms: _61  and  _63
REMARK   24  A    between atoms: _63  and  _64
REMARK   25  A    between atoms: _63  and  _66
REMARK   26  A    between atoms: _66  and  _67
REMARK   27  A    between atoms: _70  and  _72
REMARK   28  A    between atoms: _72  and  _73
REMARK   29  A    between atoms: _72  and  _75
REMARK   30  A    between atoms: _75  and  _76
REMARK   31  A    between atoms: _81  and  _82
REMARK   32  A    between atoms: _84  and  _86
REMARK   33  A    between atoms: _86  and  _87
REMARK   34  A    between atoms: _86  and  _89
REMARK   35  A    between atoms: _89  and  _90
REMARK   36  A    between atoms: _90  and  _91
REMARK   37  A    between atoms: _93  and  _95
REMARK   38  A    between atoms: _95  and  _96
REMARK   39  A    between atoms: _95  and  _98
REMARK   40  A    between atoms: _98  and  _99
REMARK   41  A    between atoms: _99  and  _100
REMARK   42  A    between atoms: _103  and  _105
REMARK   43  A    between atoms: _105  and  _106
REMARK   44  A    between atoms: _105  and  _108
REMARK   45  A    between atoms: _111  and  _113
REMARK   46  A    between atoms: _113  and  _114
REMARK   47  A    between atoms: _116  and  _118
REMARK   48  A    between atoms: _118  and  _119
REMARK   49  A    between atoms: _118  and  _121
REMARK   50  A    between atoms: _121  and  _122
REMARK   51  A    between atoms: _128  and  _130
REMARK   52  A    between atoms: _130  and  _131
REMARK   53  A    between atoms: _130  and  _133
REMARK   54  A    between atoms: _136  and  _138
REMARK   55  A    between atoms: _138  and  _139
REMARK   56  A    between atoms: _138  and  _141
REMARK   57  A    between atoms: _141  and  _142
REMARK   58  A    between atoms: _148  and  _150
REMARK   59  A    between atoms: _150  and  _151
REMARK   60  A    between atoms: _150  and  _153
REMARK   61  A    between atoms: _153  and  _154
REMARK   62  A    between atoms: _159  and  _160
REMARK   63  A    between atoms: _162  and  _164
REMARK   64  A    between atoms: _164  and  _165
REMARK   65  A    between atoms: _164  and  _167
REMARK   66  A    between atoms: _167  and  _168
REMARK   67  A    between atoms: _168  and  _169
REMARK   68  A    between atoms: _171  and  _173
REMARK   69  A    between atoms: _173  and  _174
REMARK   70  A    between atoms: _173  and  _176
REMARK   71  A    between atoms: _176  and  _177
REMARK   72  A    between atoms: _182  and  _183
REMARK   73  A    between atoms: _185  and  _187
REMARK   74  A    between atoms: _187  and  _188
REMARK   75  A    between atoms: _187  and  _190
REMARK   76  A    between atoms: _190  and  _191
REMARK   77  A    between atoms: _191  and  _192
REMARK   78  A    between atoms: _192  and  _193
REMARK   79  A    between atoms: _202  and  _204
REMARK   80  A    between atoms: _204  and  _205
REMARK   81  A    between atoms: _204  and  _207
REMARK   82  A    between atoms: _207  and  _208
REMARK   83  A    between atoms: _208  and  _209
REMARK   84  A    between atoms: _212  and  _214
REMARK   85  A    between atoms: _214  and  _215
REMARK   86  A    between atoms: _214  and  _217
REMARK   87  A    between atoms: _217  and  _218
REMARK   88  A    between atoms: _218  and  _219
REMARK   89  A    between atoms: _219  and  _220
REMARK   90  A    between atoms: _220  and  _221
REMARK   91  A    between atoms: _225  and  _227
REMARK   92  A    between atoms: _227  and  _228
REMARK   93  A    between atoms: _231  and  _233
REMARK   94  A    between atoms: _233  and  _234
REMARK   95  A    between atoms: _236  and  _238
REMARK   96  A    between atoms: _238  and  _239
REMARK   97  A    between atoms: _238  and  _241
REMARK   98  A    between atoms: _241  and  _242
REMARK   99  A    between atoms: _247  and  _249
REMARK  100  A    between atoms: _249  and  _250
REMARK  101  A    between atoms: _249  and  _252
REMARK  102  A    between atoms: _252  and  _253
REMARK  103  A    between atoms: _253  and  _254
REMARK  104  A    between atoms: _257  and  _259
REMARK  105  A    between atoms: _259  and  _260
REMARK  106  A    between atoms: _259  and  _262
REMARK  107  A    between atoms: _262  and  _263
REMARK  108  A    between atoms: _263  and  _264
REMARK  109  A    between atoms: _269  and  _271
REMARK  110  A    between atoms: _271  and  _272
REMARK  111  A    between atoms: _271  and  _274
REMARK  112  A    between atoms: _274  and  _275
REMARK  113  A    between atoms: _277  and  _279
REMARK  114  A    between atoms: _279  and  _280
REMARK  115  A    between atoms: _279  and  _282
REMARK  116  A    between atoms: _282  and  _283
REMARK  117  A    between atoms: _289  and  _291
REMARK  118  A    between atoms: _291  and  _292
REMARK  119  A    between atoms: _291  and  _294
REMARK  120  A    between atoms: _294  and  _295
REMARK  121  A    between atoms: _295  and  _296
REMARK  122  A    between atoms: _296  and  _297
REMARK  123  A    between atoms: _306  and  _308
REMARK  124  A    between atoms: _308  and  _309
REMARK  125  A    between atoms: _308  and  _311
REMARK  126  A    between atoms: _314  and  _316
REMARK  127  A    between atoms: _316  and  _317
REMARK  128  A    between atoms: _316  and  _319
REMARK  129  A    between atoms: _319  and  _320
REMARK  130  A    between atoms: _323  and  _325
REMARK  131  A    between atoms: _325  and  _326
REMARK  132  A    between atoms: _325  and  _328
REMARK  133  A    between atoms: _328  and  _329
REMARK  134  A    between atoms: _332  and  _334
REMARK  135  A    between atoms: _334  and  _335
REMARK  136  A    between atoms: _334  and  _337
REMARK  137  A    between atoms: _337  and  _338
REMARK  138  A    between atoms: _338  and  _339
REMARK  139  A    between atoms: _339  and  _340
REMARK  140  A    between atoms: _349  and  _351
REMARK  141  A    between atoms: _351  and  _352
REMARK  142  A    between atoms: _351  and  _354
REMARK  143  A    between atoms: _354  and  _355
REMARK  144  A    between atoms: _358  and  _360
REMARK  145  A    between atoms: _360  and  _361
REMARK  146  A    between atoms: _360  and  _363
REMARK  147  A    between atoms: _363  and  _364
REMARK  148  A    between atoms: _367  and  _369
REMARK  149  A    between atoms: _369  and  _370
REMARK  150  A    between atoms: _369  and  _372
REMARK  151  A    between atoms: _372  and  _373
REMARK  152  A    between atoms: _378  and  _379
REMARK  153  A    between atoms: _381  and  _383
REMARK  154  A    between atoms: _383  and  _384
REMARK  155  A    between atoms: _383  and  _386
REMARK  156  A    between atoms: _386  and  _387
REMARK  157  A    between atoms: _392  and  _393
REMARK  158  A    between atoms: _395  and  _397
REMARK  159  A    between atoms: _397  and  _398
REMARK  160  A    between atoms: _397  and  _400
REMARK  161  A    between atoms: _400  and  _401
REMARK  162  A    between atoms: _404  and  _406
REMARK  163  A    between atoms: _406  and  _407
REMARK  164  A    between atoms: _406  and  _409
REMARK  165  A    between atoms: _409  and  _410
REMARK  166  A    between atoms: _410  and  _411
REMARK  167  A    between atoms: _416  and  _418
REMARK  168  A    between atoms: _418  and  _419
REMARK  169  A    between atoms: _418  and  _421
REMARK  170  A    between atoms: _424  and  _426
REMARK  171  A    between atoms: _426  and  _427
REMARK  172  A    between atoms: _426  and  _429
REMARK  173  A    between atoms: _429  and  _430
REMARK  174  A    between atoms: _433  and  _435
REMARK  175  A    between atoms: _435  and  _436
REMARK  176  A    between atoms: _435  and  _438
REMARK  177  A    between atoms: _438  and  _439
REMARK  178  A    between atoms: _441  and  _443
REMARK  179  A    between atoms: _443  and  _444
REMARK  180  A    between atoms: _446  and  _448
REMARK  181  A    between atoms: _448  and  _449
REMARK  182  A    between atoms: _448  and  _451
REMARK  183  A    between atoms: _451  and  _452
REMARK  184  A    between atoms: _452  and  _753
REMARK  185  A    between atoms: _453  and  _455
REMARK  186  A    between atoms: _455  and  _456
REMARK  187  A    between atoms: _455  and  _458
REMARK  188  A    between atoms: _458  and  _459
REMARK  189  A    between atoms: _464  and  _465
REMARK  190  A    between atoms: _467  and  _469
REMARK  191  A    between atoms: _469  and  _470
REMARK  192  A    between atoms: _469  and  _472
REMARK  193  A    between atoms: _472  and  _473
REMARK  194  A    between atoms: _473  and  _474
REMARK  195  A    between atoms: _479  and  _481
REMARK  196  A    between atoms: _481  and  _482
REMARK  197  A    between atoms: _481  and  _484
REMARK  198  A    between atoms: _484  and  _485
REMARK  199  A    between atoms: _485  and  _486
REMARK  200  A    between atoms: _491  and  _493
REMARK  201  A    between atoms: _493  and  _494
REMARK  202  A    between atoms: _493  and  _496
REMARK  203  A    between atoms: _496  and  _497
REMARK  204  A    between atoms: _502  and  _503
REMARK  205  A    between atoms: _505  and  _507
REMARK  206  A    between atoms: _507  and  _508
REMARK  207  A    between atoms: _511  and  _513
REMARK  208  A    between atoms: _513  and  _514
REMARK  209  A    between atoms: _513  and  _516
REMARK  210  A    between atoms: _516  and  _517
REMARK  211  A    between atoms: _522  and  _523
REMARK  212  A    between atoms: _525  and  _527
REMARK  213  A    between atoms: _527  and  _528
REMARK  214  A    between atoms: _527  and  _530
REMARK  215  A    between atoms: _530  and  _531
REMARK  216  A    between atoms: _536  and  _537
REMARK  217  A    between atoms: _539  and  _541
REMARK  218  A    between atoms: _541  and  _542
REMARK  219  A    between atoms: _541  and  _544
REMARK  220  A    between atoms: _544  and  _545
REMARK  221  A    between atoms: _548  and  _550
REMARK  222  A    between atoms: _550  and  _551
REMARK  223  A    between atoms: _554  and  _556
REMARK  224  A    between atoms: _556  and  _557
REMARK  225  A    between atoms: _560  and  _562
REMARK  226  A    between atoms: _562  and  _563
REMARK  227  A    between atoms: _562  and  _565
REMARK  228  A    between atoms: _565  and  _566
REMARK  229  A    between atoms: _569  and  _571
REMARK  230  A    between atoms: _571  and  _572
REMARK  231  A    between atoms: _571  and  _574
REMARK  232  A    between atoms: _574  and  _575
REMARK  233  A    between atoms: _578  and  _580
REMARK  234  A    between atoms: _580  and  _581
REMARK  235  A    between atoms: _580  and  _583
REMARK  236  A    between atoms: _583  and  _584
REMARK  237  A    between atoms: _587  and  _589
REMARK  238  A    between atoms: _589  and  _590
REMARK  239  A    between atoms: _589  and  _592
REMARK  240  A    between atoms: _592  and  _593
REMARK  241  A    between atoms: _593  and  _594
REMARK  242  A    between atoms: _594  and  _595
REMARK  243  A    between atoms: _595  and  _596
REMARK  244  A    between atoms: _600  and  _602
REMARK  245  A    between atoms: _602  and  _603
REMARK  246  A    between atoms: _602  and  _605
REMARK  247  A    between atoms: _605  and  _606
REMARK  248  A    between atoms: _611  and  _613
REMARK  249  A    between atoms: _613  and  _614
REMARK  250  A    between atoms: _613  and  _616
REMARK  251  A    between atoms: _616  and  _617
REMARK  252  A    between atoms: _617  and  _618
REMARK  253  A    between atoms: _618  and  _619
REMARK  254  A    between atoms: _619  and  _620
REMARK  255  A    between atoms: _624  and  _626
REMARK  256  A    between atoms: _626  and  _627
REMARK  257  A    between atoms: _626  and  _629
REMARK  258  A    between atoms: _629  and  _630
REMARK  259  A    between atoms: _640  and  _642
REMARK  260  A    between atoms: _642  and  _643
REMARK  261  A    between atoms: _646  and  _648
REMARK  262  A    between atoms: _648  and  _649
REMARK  263  A    between atoms: _648  and  _651
REMARK  264  A    between atoms: _651  and  _652
REMARK  265  A    between atoms: _652  and  _653
REMARK  266  A    between atoms: _656  and  _658
REMARK  267  A    between atoms: _658  and  _659
REMARK  268  A    between atoms: _658  and  _661
REMARK  269  A    between atoms: _661  and  _662
REMARK  270  A    between atoms: _662  and  _663
REMARK  271  A    between atoms: _666  and  _668
REMARK  272  A    between atoms: _668  and  _669
REMARK  273  A    between atoms: _668  and  _671
REMARK  274  A    between atoms: _671  and  _672
REMARK  275  A    between atoms: _672  and  _673
REMARK  276  A    between atoms: _673  and  _674
REMARK  277  A    between atoms: _683  and  _685
REMARK  278  A    between atoms: _685  and  _686
REMARK  279  A    between atoms: _685  and  _688
REMARK  280  A    between atoms: _688  and  _689
REMARK  281  A    between atoms: _692  and  _694
REMARK  282  A    between atoms: _694  and  _695
REMARK  283  A    between atoms: _694  and  _697
REMARK  284  A    between atoms: _697  and  _698
REMARK  285  A    between atoms: _698  and  _699
REMARK  286  A    between atoms: _699  and  _700
REMARK  287  A    between atoms: _709  and  _711
REMARK  288  A    between atoms: _711  and  _712
REMARK  289  A    between atoms: _715  and  _717
REMARK  290  A    between atoms: _717  and  _718
REMARK  291  A    between atoms: _717  and  _720
REMARK  292  A    between atoms: _720  and  _721
REMARK  293  A    between atoms: _726  and  _727
REMARK  294  A    between atoms: _729  and  _731
REMARK  295  A    between atoms: _731  and  _732
REMARK  296  A    between atoms: _731  and  _734
REMARK  297  A    between atoms: _734  and  _735
REMARK  298  A    between atoms: _738  and  _740
REMARK  299  A    between atoms: _740  and  _741
REMARK  300  A    between atoms: _740  and  _743
REMARK  301  A    between atoms: _743  and  _744
REMARK  302  A    between atoms: _747  and  _749
REMARK  303  A    between atoms: _749  and  _750
REMARK  304  A    between atoms: _749  and  _752
REMARK  305  A    between atoms: _752  and  _753
REMARK  306  A    between atoms: _754  and  _756
REMARK  307  A    between atoms: _756  and  _757
REMARK  308  A    between atoms: _756  and  _759
REMARK  309  A    between atoms: _762  and  _764
REMARK  310  A    between atoms: _764  and  _765
REMARK  311  A    between atoms: _764  and  _767
REMARK  312  A    between atoms: _767  and  _768
REMARK  313  A    between atoms: _768  and  _769
REMARK  314  A    between atoms: _772  and  _774
REMARK  315  A    between atoms: _774  and  _775
REMARK  316  A    between atoms: _774  and  _777
REMARK  317  A    between atoms: _777  and  _778
REMARK  318  A    between atoms: _788  and  _790
REMARK  319  A    between atoms: _790  and  _791
REMARK  320  A    between atoms: _790  and  _793
REMARK  321  A    between atoms: _793  and  _794
REMARK  322  A    between atoms: _797  and  _799
REMARK  323  A    between atoms: _799  and  _800
REMARK  324  A    between atoms: _799  and  _802
REMARK  325  A    between atoms: _802  and  _803
REMARK  326  A    between atoms: _808  and  _809
REMARK                            x       y       z     vdW  Elec       q    Type
REMARK                         _______ _______ _______ _____ _____    ______ ____
ROOT
ATOM      1  CA  LYS A   1      -6.579  -0.465  -9.367  0.00  0.00    +0.145 C 
ENDROOT
BRANCH   1   2
ATOM      2  C   LYS A   1      -5.788   0.295 -10.449  0.00  0.00    +0.238 C 
ATOM      3  O   LYS A   1      -5.791   1.529 -10.479  0.00  0.00    -0.274 OA
ATOM      4  N   ALA A   2      -5.139  -0.446 -11.349  0.00  0.00    -0.298 N 
ATOM      5  H   ALA A   2      -5.158  -1.482 -11.260  0.00  0.00    +0.150 HD
BRANCH   4   6
ATOM      6  CA  ALA A   2      -4.399   0.160 -12.461  0.00  0.00    +0.137 C 
ATOM      7  CB  ALA A   2      -3.661  -0.896 -13.264  0.00  0.00    +0.030 C 
BRANCH   6   8
ATOM      8  C   ALA A   2      -5.355   0.891 -13.363  0.00  0.00    +0.227 C 
ATOM      9  O   ALA A   2      -5.102   2.026 -13.772  0.00  0.00    -0.286 OA
ENDBRANCH   6   8
ENDBRANCH   4   6
ENDBRANCH   1   2
BRANCH   1  10
ATOM     10  N   LYS A   1      -7.146  -1.683  -9.927  0.00  0.00    -0.238 NA
ATOM     11  H   LYS A   1      -6.784  -2.606  -9.613  0.00  0.00    +0.142 HD
ENDBRANCH   1  10
BRANCH   1  12
ATOM     12  CB  LYS A   1      -5.712  -0.793  -8.141  0.00  0.00    +0.026 C 
BRANCH  12  13
ATOM     13  CG  LYS A   1      -4.843   0.346  -7.636  0.00  0.00    -0.000 C 
BRANCH  13  14
ATOM     14  CD  LYS A   1      -4.431   0.144  -6.170  0.00  0.00    -0.024 C 
BRANCH  14  15
ATOM     15  CE  LYS A   1      -3.656  -1.153  -5.954  0.00  0.00    -0.086 C 
BRANCH  15  16
ATOM     16  NZ  LYS A   1      -2.335  -1.154  -6.645  0.00  0.00    +0.380 N 
ATOM     17  HZ1 LYS A   1      -1.755  -0.371  -6.282  0.00  0.00    -0.089 HD
ATOM     18  HZ2 LYS A   1      -1.852  -2.057  -6.465  0.00  0.00    -0.089 HD
ATOM     19  HZ3 LYS A   1      -2.480  -1.035  -7.668  0.00  0.00    -0.089 HD
ENDBRANCH  15  16
ENDBRANCH  14  15
ENDBRANCH  13  14
ENDBRANCH  12  13
ENDBRANCH   1  12
TORSDOF 9
REMARK  Name = ../refined-set-2016/3p9m/3p9m_pocket.pdb
REMARK  326 active torsions:
REMARK  status: ('A' for Active; 'I' for Inactive)
REMARK    1  A    between atoms: _1  and  _3
REMARK    2  A    between atoms: _3  and  _4
REMARK    3  A    between atoms: _3  and  _6
REMARK    4  A    between atoms: _6  and  _7
REMARK    5  A    between atoms: _10  and  _12
REMARK    6  A    between atoms: _12  and  _13
REMARK    7  A    between atoms: _12  and  _15
REMARK    8  A    between atoms: _15  and  _16
REMARK    9  A    between atoms: _16  and  _17
REMARK   10  A    between atoms: _17  and  _18
REMARK   11  A    between atoms: _27  and  _29
REMARK   12  A    between atoms: _29  and  _30
REMARK   13  A    between atoms: _29  and  _32
REMARK   14  A    between atoms: _32  and  _33
REMARK   15  A    between atoms: _38  and  _39
REMARK   16  A    between atoms: _41  and  _43
REMARK   17  A    between atoms: _43  and  _44
REMARK   18  A    between atoms: _43  and  _46
REMARK   19  A    between atoms: _46  and  _47
REMARK   20  A    between atoms: _53  and  _55
REMARK   21  A    between atoms: _55  and  _56
REMARK   22  A    between atoms: _55  and  _58
REMARK   23  A    between atoms: _61  and  _63
REMARK   24  A    between atoms: _63  and  _64
REMARK   25  A    between atoms: _63  and  _66
REMARK   26  A    between atoms: _66  and  _67
REMARK   27  A    between atoms: _70  and  _72
REMARK   28  A    between atoms: _72  and  _73
REMARK   29  A    between atoms: _72  and  _75
REMARK   30  A    between atoms: _75  and  _76
REMARK   31  A    between atoms: _81  and  _82
REMARK   32  A    between atoms: _84  and  _86
REMARK   33  A    between atoms: _86  and  _87
REMARK   34  A    between atoms: _86  and  _89
REMARK   35  A    between atoms: _89  and  _90
REMARK   36  A    between atoms: _90  and  _91
REMARK   37  A    between atoms: _93  and  _95
REMARK   38  A    between atoms: _95  and  _96
REMARK   39  A    between atoms: _95  and  _98
REMARK   40  A    between atoms: _98  and  _99
REMARK   41  A    between atoms: _99  and  _100
REMARK   42  A    between atoms: _103  and  _105
REMARK   43  A    between atoms: _105  and  _106
REMARK   44  A    between atoms: _105  and  _108
REMARK   45  A    between atoms: _111  and  _113
REMARK   46  A    between atoms: _113  and  _114
REMARK   47  A    between atoms: _116  and  _118
REMARK   48  A    between atoms: _118  and  _119
REMARK   49  A    between atoms: _118  and  _121
REMARK   50  A    between atoms: _121  and  _122
REMARK   51  A    between atoms: _128  and  _130
REMARK   52  A    between atoms: _130  and  _131
REMARK   53  A    between atoms: _130  and  _133
REMARK   54  A    between atoms: _136  and  _138
REMARK   55  A    between atoms: _138  and  _139
REMARK   56  A    between atoms: _138  and  _141
REMARK   57  A    between atoms: _141  and  _142
REMARK   58  A    between atoms: _148  and  _150
REMARK   59  A    between atoms: _150  and  _151
REMARK   60  A    between atoms: _150  and  _153
REMARK   61  A    between atoms: _153  and  _154
REMARK   62  A    between atoms: _159  and  _160
REMARK   63  A    between atoms: _162  and  _164
REMARK   64  A    between atoms: _164  and  _165
REMARK   65  A    between atoms: _164  and  _167
REMARK   66  A    between atoms: _167  and  _168
REMARK   67  A    between atoms: _168  and  _169
REMARK   68  A    between atoms: _171  and  _173
REMARK   69  A    between atoms: _173  and  _174
REMARK   70  A    between atoms: _173  and  _176
REMARK   71  A    between atoms: _176  and  _177
REMARK   72  A    between atoms: _182  and  _183
REMARK   73  A    between atoms: _185  and  _187
REMARK   74  A    between atoms: _187  and  _188
REMARK   75  A    between atoms: _187  and  _190
REMARK   76  A    between atoms: _190  and  _191
REMARK   77  A    between atoms: _191  and  _192
REMARK   78  A    between atoms: _192  and  _193
REMARK   79  A    between atoms: _202  and  _204
REMARK   80  A    between atoms: _204  and  _205
REMARK   81  A    between atoms: _204  and  _207
REMARK   82  A    between atoms: _207  and  _208
REMARK   83  A    between atoms: _208  and  _209
REMARK   84  A    between atoms: _212  and  _214
REMARK   85  A    between atoms: _214  and  _215
REMARK   86  A    between atoms: _214  and  _217
REMARK   87  A    between atoms: _217  and  _218
REMARK   88  A    between atoms: _218  and  _219
REMARK   89  A    between atoms: _219  and  _220
REMARK   90  A    between atoms: _220  and  _221
REMARK   91  A    between atoms: _225  and  _227
REMARK   92  A    between atoms: _227  and  _228
REMARK   93  A    between atoms: _231  and  _233
REMARK   94  A    between atoms: _233  and  _234
REMARK   95  A    between atoms: _236  and  _238
REMARK   96  A    between atoms: _238  and  _239
REMARK   97  A    between atoms: _238  and  _241
REMARK   98  A    between atoms: _241  and  _242
REMARK   99  A    between atoms: _247  and  _249
REMARK  100  A    between atoms: _249  and  _250
REMARK  101  A    between atoms: _249  and  _252
REMARK  102  A    between atoms: _252  and  _253
REMARK  103  A    between atoms: _253  and  _254
REMARK  104  A    between atoms: _257  and  _259
REMARK  105  A    between atoms: _259  and  _260
REMARK  106  A    between atoms: _259  and  _262
REMARK  107  A    between atoms: _262  and  _263
REMARK  108  A    between atoms: _263  and  _264
REMARK  109  A    between atoms: _269  and  _271
REMARK  110  A    between atoms: _271  and  _272
REMARK  111  A    between atoms: _271  and  _274
REMARK  112  A    between atoms: _274  and  _275
REMARK  113  A    between atoms: _277  and  _279
REMARK  114  A    between atoms: _279  and  _280
REMARK  115  A    between atoms: _279  and  _282
REMARK  116  A    between atoms: _282  and  _283
REMARK  117  A    between atoms: _289  and  _291
REMARK  118  A    between atoms: _291  and  _292
REMARK  119  A    between atoms: _291  and  _294
REMARK  120  A    between atoms: _294  and  _295
REMARK  121  A    between atoms: _295  and  _296
REMARK  122  A    between atoms: _296  and  _297
REMARK  123  A    between atoms: _306  and  _308
REMARK  124  A    between atoms: _308  and  _309
REMARK  125  A    between atoms: _308  and  _311
REMARK  126  A    between atoms: _314  and  _316
REMARK  127  A    between atoms: _316  and  _317
REMARK  128  A    between atoms: _316  and  _319
REMARK  129  A    between atoms: _319  and  _320
REMARK  130  A    between atoms: _323  and  _325
REMARK  131  A    between atoms: _325  and  _326
REMARK  132  A    between atoms: _325  and  _328
REMARK  133  A    between atoms: _328  and  _329
REMARK  134  A    between atoms: _332  and  _334
REMARK  135  A    between atoms: _334  and  _335
REMARK  136  A    between atoms: _334  and  _337
REMARK  137  A    between atoms: _337  and  _338
REMARK  138  A    between atoms: _338  and  _339
REMARK  139  A    between atoms: _339  and  _340
REMARK  140  A    between atoms: _349  and  _351
REMARK  141  A    between atoms: _351  and  _352
REMARK  142  A    between atoms: _351  and  _354
REMARK  143  A    between atoms: _354  and  _355
REMARK  144  A    between atoms: _358  and  _360
REMARK  145  A    between atoms: _360  and  _361
REMARK  146  A    between atoms: _360  and  _363
REMARK  147  A    between atoms: _363  and  _364
REMARK  148  A    between atoms: _367  and  _369
REMARK  149  A    between atoms: _369  and  _370
REMARK  150  A    between atoms: _369  and  _372
REMARK  151  A    between atoms: _372  and  _373
REMARK  152  A    between atoms: _378  and  _379
REMARK  153  A    between atoms: _381  and  _383
REMARK  154  A    between atoms: _383  and  _384
REMARK  155  A    between atoms: _383  and  _386
REMARK  156  A    between atoms: _386  and  _387
REMARK  157  A    between atoms: _392  and  _393
REMARK  158  A    between atoms: _395  and  _397
REMARK  159  A    between atoms: _397  and  _398
REMARK  160  A    between atoms: _397  and  _400
REMARK  161  A    between atoms: _400  and  _401
REMARK  162  A    between atoms: _404  and  _406
REMARK  163  A    between atoms: _406  and  _407
REMARK  164  A    between atoms: _406  and  _409
REMARK  165  A    between atoms: _409  and  _410
REMARK  166  A    between atoms: _410  and  _411
REMARK  167  A    between atoms: _416  and  _418
REMARK  168  A    between atoms: _418  and  _419
REMARK  169  A    between atoms: _418  and  _421
REMARK  170  A    between atoms: _424  and  _426
REMARK  171  A    between atoms: _426  and  _427
REMARK  172  A    between atoms: _426  and  _429
REMARK  173  A    between atoms: _429  and  _430
REMARK  174  A    between atoms: _433  and  _435
REMARK  175  A    between atoms: _435  and  _436
REMARK  176  A    between atoms: _435  and  _438
REMARK  177  A    between atoms: _438  and  _439
REMARK  178  A    between atoms: _441  and  _443
REMARK  179  A    between atoms: _443  and  _444
REMARK  180  A    between atoms: _446  and  _448
REMARK  181  A    between atoms: _448  and  _449
REMARK  182  A    between atoms: _448  and  _451
REMARK  183  A    between atoms: _451  and  _452
REMARK  184  A    between atoms: _452  and  _753
REMARK  185  A    between atoms: _453  and  _455
REMARK  186  A    between atoms: _455  and  _456
REMARK  187  A    between atoms: _455  and  _458
REMARK  188  A    between atoms: _458  and  _459
REMARK  189  A    between atoms: _464  and  _465
REMARK  190  A    between atoms: _467  and  _469
REMARK  191  A    between atoms: _469  and  _470
REMARK  192  A    between atoms: _469  and  _472
REMARK  193  A    between atoms: _472  and  _473
REMARK  194  A    between atoms: _473  and  _474
REMARK  195  A    between atoms: _479  and  _481
REMARK  196  A    between atoms: _481  and  _482
REMARK  197  A    between atoms: _481  and  _484
REMARK  198  A    between atoms: _484  and  _485
REMARK  199  A    between atoms: _485  and  _486
REMARK  200  A    between atoms: _491  and  _493
REMARK  201  A    between atoms: _493  and  _494
REMARK  202  A    between atoms: _493  and  _496
REMARK  203  A    between atoms: _496  and  _497
REMARK  204  A    between atoms: _502  and  _503
REMARK  205  A    between atoms: _505  and  _507
REMARK  206  A    between atoms: _507  and  _508
REMARK  207  A    between atoms: _511  and  _513
REMARK  208  A    between atoms: _513  and  _514
REMARK  209  A    between atoms: _513  and  _516
REMARK  210  A    between atoms: _516  and  _517
REMARK  211  A    between atoms: _522  and  _523
REMARK  212  A    between atoms: _525  and  _527
REMARK  213  A    between atoms: _527  and  _528
REMARK  214  A    between atoms: _527  and  _530
REMARK  215  A    between atoms: _530  and  _531
REMARK  216  A    between atoms: _536  and  _537
REMARK  217  A    between atoms: _539  and  _541
REMARK  218  A    between atoms: _541  and  _542
REMARK  219  A    between atoms: _541  and  _544
REMARK  220  A    between atoms: _544  and  _545
REMARK  221  A    between atoms: _548  and  _550
REMARK  222  A    between atoms: _550  and  _551
REMARK  223  A    between atoms: _554  and  _556
REMARK  224  A    between atoms: _556  and  _557
REMARK  225  A    between atoms: _560  and  _562
REMARK  226  A    between atoms: _562  and  _563
REMARK  227  A    between atoms: _562  and  _565
REMARK  228  A    between atoms: _565  and  _566
REMARK  229  A    between atoms: _569  and  _571
REMARK  230  A    between atoms: _571  and  _572
REMARK  231  A    between atoms: _571  and  _574
REMARK  232  A    between atoms: _574  and  _575
REMARK  233  A    between atoms: _578  and  _580
REMARK  234  A    between atoms: _580  and  _581
REMARK  235  A    between atoms: _580  and  _583
REMARK  236  A    between atoms: _583  and  _584
REMARK  237  A    between atoms: _587  and  _589
REMARK  238  A    between atoms: _589  and  _590
REMARK  239  A    between atoms: _589  and  _592
REMARK  240  A    between atoms: _592  and  _593
REMARK  241  A    between atoms: _593  and  _594
REMARK  242  A    between atoms: _594  and  _595
REMARK  243  A    between atoms: _595  and  _596
REMARK  244  A    between atoms: _600  and  _602
REMARK  245  A    between atoms: _602  and  _603
REMARK  246  A    between atoms: _602  and  _605
REMARK  247  A    between atoms: _605  and  _606
REMARK  248  A    between atoms: _611  and  _613
REMARK  249  A    between atoms: _613  and  _614
REMARK  250  A    between atoms: _613  and  _616
REMARK  251  A    between atoms: _616  and  _617
REMARK  252  A    between atoms: _617  and  _618
REMARK  253  A    between atoms: _618  and  _619
REMARK  254  A    between atoms: _619  and  _620
REMARK  255  A    between atoms: _624  and  _626
REMARK  256  A    between atoms: _626  and  _627
REMARK  257  A    between atoms: _626  and  _629
REMARK  258  A    between atoms: _629  and  _630
REMARK  259  A    between atoms: _640  and  _642
REMARK  260  A    between atoms: _642  and  _643
REMARK  261  A    between atoms: _646  and  _648
REMARK  262  A    between atoms: _648  and  _649
REMARK  263  A    between atoms: _648  and  _651
REMARK  264  A    between atoms: _651  and  _652
REMARK  265  A    between atoms: _652  and  _653
REMARK  266  A    between atoms: _656  and  _658
REMARK  267  A    between atoms: _658  and  _659
REMARK  268  A    between atoms: _658  and  _661
REMARK  269  A    between atoms: _661  and  _662
REMARK  270  A    between atoms: _662  and  _663
REMARK  271  A    between atoms: _666  and  _668
REMARK  272  A    between atoms: _668  and  _669
REMARK  273  A    between atoms: _668  and  _671
REMARK  274  A    between atoms: _671  and  _672
REMARK  275  A    between atoms: _672  and  _673
REMARK  276  A    between atoms: _673  and  _674
REMARK  277  A    between atoms: _683  and  _685
REMARK  278  A    between atoms: _685  and  _686
REMARK  279  A    between atoms: _685  and  _688
REMARK  280  A    between atoms: _688  and  _689
REMARK  281  A    between atoms: _692  and  _694
REMARK  282  A    between atoms: _694  and  _695
REMARK  283  A    between atoms: _694  and  _697
REMARK  284  A    between atoms: _697  and  _698
REMARK  285  A    between atoms: _698  and  _699
REMARK  286  A    between atoms: _699  and  _700
REMARK  287  A    between atoms: _709  and  _711
REMARK  288  A    between atoms: _711  and  _712
REMARK  289  A    between atoms: _715  and  _717
REMARK  290  A    between atoms: _717  and  _718
REMARK  291  A    between atoms: _717  and  _720
REMARK  292  A    between atoms: _720  and  _721
REMARK  293  A    between atoms: _726  and  _727
REMARK  294  A    between atoms: _729  and  _731
REMARK  295  A    between atoms: _731  and  _732
REMARK  296  A    between atoms: _731  and  _734
REMARK  297  A    between atoms: _734  and  _735
REMARK  298  A    between atoms: _738  and  _740
REMARK  299  A    between atoms: _740  and  _741
REMARK  300  A    between atoms: _740  and  _743
REMARK  301  A    between atoms: _743  and  _744
REMARK  302  A    between atoms: _747  and  _749
REMARK  303  A    between atoms: _749  and  _750
REMARK  304  A    between atoms: _749  and  _752
REMARK  305  A    between atoms: _752  and  _753
REMARK  306  A    between atoms: _754  and  _756
REMARK  307  A    between atoms: _756  and  _757
REMARK  308  A    between atoms: _756  and  _759
REMARK  309  A    between atoms: _762  and  _764
REMARK  310  A    between atoms: _764  and  _765
REMARK  311  A    between atoms: _764  and  _767
REMARK  312  A    between atoms: _767  and  _768
REMARK  313  A    between atoms: _768  and  _769
REMARK  314  A    between atoms: _772  and  _774
REMARK  315  A    between atoms: _774  and  _775
REMARK  316  A    between atoms: _774  and  _777
REMARK  317  A    between atoms: _777  and  _778
REMARK  318  A    between atoms: _788  and  _790
REMARK  319  A    between atoms: _790  and  _791
REMARK  320  A    between atoms: _790  and  _793
REMARK  321  A    between atoms: _793  and  _794
REMARK  322  A    between atoms: _797  and  _799
REMARK  323  A    between atoms: _799  and  _800
REMARK  324  A    between atoms: _799  and  _802
REMARK  325  A    between atoms: _802  and  _803
REMARK  326  A    between atoms: _808  and  _809
REMARK                            x       y       z     vdW  Elec       q    Type
REMARK                         _______ _______ _______ _____ _____    ______ ____
ROOT
ATOM      1  CA  ARG A   7      -6.693  10.674 -18.354  0.00  0.00    +0.149 C 
ENDROOT
BRANCH   1   2
ATOM      2  C   ARG A   7      -7.269  12.059 -18.025  0.00  0.00    +0.241 C 
ATOM      3  N   VAL A   8      -7.914  12.178 -16.870  0.00  0.00    -0.297 N 
ATOM      4  H   VAL A   8      -8.075  11.332 -16.288  0.00  0.00    +0.150 HD
ATOM      5  O   ARG A   7      -7.122  13.001 -18.794  0.00  0.00    -0.273 OA
BRANCH   3   6
ATOM      6  CA  VAL A   8      -8.401  13.470 -16.401  0.00  0.00    +0.149 C 
BRANCH   6   7
ATOM      7  C   VAL A   8      -7.273  14.499 -16.187  0.00  0.00    +0.241 C 
ATOM      8  N   ASP A   9      -6.198  14.068 -15.519  0.00  0.00    -0.297 N 
ATOM      9  H   ASP A   9      -6.178  13.082 -15.188  0.00  0.00    +0.150 HD
ATOM     10  O   VAL A   8      -7.382  15.657 -16.625  0.00  0.00    -0.273 OA
BRANCH   8  11
ATOM     11  CA  ASP A   9      -5.046  14.929 -15.234  0.00  0.00    +0.160 C 
BRANCH  11  12
ATOM     12  C   ASP A   9      -4.399  15.527 -16.488  0.00  0.00    +0.241 C 
ATOM     13  O   ASP A   9      -3.910  16.667 -16.470  0.00  0.00    -0.273 OA
ATOM     14  N   LEU A  10      -4.361  14.750 -17.558  0.00  0.00    -0.297 N 
ATOM     15  H   LEU A  10      -4.723  13.777 -17.501  0.00  0.00    +0.150 HD
BRANCH  14  16
ATOM     16  CA  LEU A  10      -3.815  15.247 -18.821  0.00  0.00    +0.149 C 
BRANCH  16  17
ATOM     17  C   LEU A  10      -4.636  16.446 -19.294  0.00  0.00    +0.241 C 
ATOM     18  N   ARG A  11      -5.961  16.334 -19.207  0.00  0.00    -0.297 N 
ATOM     19  H   ARG A  11      -6.378  15.436 -18.890  0.00  0.00    +0.150 HD
ATOM     20  O   LEU A  10      -4.078  17.460 -19.708  0.00  0.00    -0.273 OA
BRANCH  18  21
ATOM     21  CA  ARG A  11      -6.838  17.453 -19.550  0.00  0.00    +0.149 C 
BRANCH  21  22
ATOM     22  C   ARG A  11      -6.638  18.627 -18.603  0.00  0.00    +0.241 C 
ATOM     23  N   THR A  12      -6.506  18.331 -17.316  0.00  0.00    -0.295 N 
ATOM     24  H   THR A  12      -6.567  17.338 -17.012  0.00  0.00    +0.150 HD
ATOM     25  O   ARG A  11      -6.612  19.778 -19.028  0.00  0.00    -0.273 OA
BRANCH  23  26
ATOM     26  CA  THR A  12      -6.277  19.368 -16.322  0.00  0.00    +0.176 C 
BRANCH  26  27
ATOM     27  C   THR A  12      -5.034  20.183 -16.644  0.00  0.00    +0.243 C 
ATOM     28  O   THR A  12      -5.031  21.409 -16.518  0.00  0.00    -0.273 OA
ATOM     29  N   LEU A  13      -3.970  19.504 -17.054  0.00  0.00    -0.298 N 
ATOM     30  H   LEU A  13      -4.034  18.475 -17.194  0.00  0.00    +0.150 HD
BRANCH  29  31
ATOM     31  CA  LEU A  13      -2.713  20.195 -17.309  0.00  0.00    +0.137 C 
BRANCH  31  32
ATOM     32  C   LEU A  13      -2.753  21.051 -18.584  0.00  0.00    +0.227 C 
ATOM     33  O   LEU A  13      -2.147  22.121 -18.624  0.00  0.00    -0.286 OA
ENDBRANCH  31  32
BRANCH  31  34
ATOM     34  CB  LEU A  13      -1.526  19.225 -17.310  0.00  0.00    +0.028 C 
BRANCH  34  35
ATOM     35  CG  LEU A  13      -1.174  18.612 -15.949  0.00  0.00    +0.002 C 
ATOM     36  CD2 LEU A  13      -1.101  19.679 -14.886  0.00  0.00    +0.000 C 
ATOM     37  CD1 LEU A  13       0.142  17.840 -16.006  0.00  0.00    +0.000 C 
ENDBRANCH  34  35
ENDBRANCH  31  34
ENDBRANCH  29  31
ENDBRANCH  26  27
BRANCH  26  38
ATOM     38  CB  THR A  12      -6.105  18.773 -14.910  0.00  0.00    +0.137 C 
ATOM     39  CG2 THR A  12      -5.814  19.876 -13.901  0.00  0.00    +0.034 C 
BRANCH  38  40
ATOM     40  OG1 THR A  12      -7.302  18.094 -14.530  0.00  0.00    -0.382 OA
ATOM     41  HG1 THR A  12      -7.190  17.713 -13.623  0.00  0.00    +0.210 HD
ENDBRANCH  38  40
ENDBRANCH  26  38
ENDBRANCH  23  26
ENDBRANCH  21  22
BRANCH  21  42
ATOM     42  CB  ARG A  11      -8.307  17.028 -19.549  0.00  0.00    +0.033 C 
BRANCH  42  43
ATOM     43  CG  ARG A  11      -8.630  15.945 -20.567  0.00  0.00    +0.045 C 
BRANCH  43  44
ATOM     44  CD  ARG A  11     -10.109  15.605 -20.543  0.00  0.00    +0.174 C 
BRANCH  44  45
ATOM     45  NE  ARG A  11     -10.620  15.549 -19.175  0.00  0.00    -0.265 N 
ATOM     46  HE  ARG A  11      -9.952  15.732 -18.399  0.00  0.00    +0.259 HD
ATOM     47  CZ  ARG A  11     -11.882  15.280 -18.858  0.00  0.00    +0.342 C 
ATOM     48  NH2 ARG A  11     -12.260  15.250 -17.585  0.00  0.00    -0.292 N 
ATOM     49 HH21 ARG A  11     -11.567  15.437 -16.832  0.00  0.00    +0.255 HD
ATOM     50 HH22 ARG A  11     -13.249  15.039 -17.341  0.00  0.00    +0.255 HD
ATOM     51  NH1 ARG A  11     -12.768  15.038 -19.817  0.00  0.00    -0.292 N 
ATOM     52 HH11 ARG A  11     -13.756  14.827 -19.571  0.00  0.00    +0.255 HD
ATOM     53 HH12 ARG A  11     -12.474  15.059 -20.814  0.00  0.00    +0.255 HD
ENDBRANCH  44  45
ENDBRANCH  43  44
ENDBRANCH  42  43
ENDBRANCH  21  42
ENDBRANCH  18  21
ENDBRANCH  16  17
BRANCH  16  54
ATOM     54  CB  LEU A  10      -3.790  14.142 -19.875  0.00  0.00    +0.029 C 
BRANCH  54  55
ATOM     55  CG  LEU A  10      -2.725  13.059 -19.654  0.00  0.00    +0.002 C 
ATOM     56  CD2 LEU A  10      -1.320  13.575 -20.026  0.00  0.00    +0.000 C 
ATOM     57  CD1 LEU A  10      -3.076  11.781 -20.410  0.00  0.00    +0.000 C 
ENDBRANCH  54  55
ENDBRANCH  16  54
ENDBRANCH  14  16
ENDBRANCH  11  12
BRANCH  11  58
ATOM     58  CB  ASP A   9      -3.969  14.170 -14.458  0.00  0.00    +0.143 C 
BRANCH  58  59
ATOM     59  CG  ASP A   9      -4.411  13.772 -13.063  0.00  0.00    +0.367 C 
ATOM     60  OD2 ASP A   9      -5.235  14.489 -12.437  0.00  0.00    -0.246 OA
ATOM     61  OD1 ASP A   9      -3.907  12.729 -12.596  0.00  0.00    -0.246 OA
ENDBRANCH  58  59
ENDBRANCH  11  58
ENDBRANCH   8  11
ENDBRANCH   6   7
BRANCH   6  62
ATOM     62  CB  VAL A   8      -9.223  13.308 -15.103  0.00  0.00    +0.027 C 
ATOM     63  CG2 VAL A   8      -9.451  14.659 -14.434  0.00  0.00    +0.002 C 
ATOM     64  CG1 VAL A   8     -10.550  12.612 -15.401  0.00  0.00    +0.002 C 
ENDBRANCH   6  62
ENDBRANCH   3   6
ENDBRANCH   1   2
BRANCH   1  67
ATOM     65  C   PHE A   6      -5.041  10.775 -16.602  0.00  0.00    +0.241 C 
ATOM     66  O   PHE A   6      -4.560  11.796 -17.109  0.00  0.00    -0.273 OA
ATOM     67  N   ARG A   7      -6.032  10.107 -17.177  0.00  0.00    -0.297 N 
ATOM     68  H   ARG A   7      -6.337   9.189 -16.795  0.00  0.00    +0.150 HD
BRANCH  65  69
ATOM     69  CA  PHE A   6      -4.494  10.216 -15.275  0.00  0.00    +0.153 C 
BRANCH  69  72
ATOM     70  C   SER A   5      -6.546  10.189 -13.949  0.00  0.00    +0.243 C 
ATOM     71  O   SER A   5      -6.661  11.410 -14.042  0.00  0.00    -0.273 OA
ATOM     72  N   PHE A   6      -5.520   9.528 -14.486  0.00  0.00    -0.297 N 
ATOM     73  H   PHE A   6      -5.446   8.501 -14.342  0.00  0.00    +0.150 HD
BRANCH  70  74
ATOM     74  CA  SER A   5      -7.620   9.359 -13.215  0.00  0.00    +0.178 C 
BRANCH  74  76
ATOM     75  C   GLN A   4      -8.523   8.209 -15.149  0.00  0.00    +0.241 C 
ATOM     76  N   SER A   5      -7.952   8.151 -13.953  0.00  0.00    -0.295 N 
ATOM     77  H   SER A   5      -7.738   7.223 -13.535  0.00  0.00    +0.150 HD
ATOM     78  O   GLN A   4      -8.808   9.274 -15.695  0.00  0.00    -0.273 OA
BRANCH  75  79
ATOM     79  CA  GLN A   4      -8.740   6.878 -15.866  0.00  0.00    +0.149 C 
BRANCH  79  81
ATOM     80  C   GLU A   3      -6.448   6.220 -16.085  0.00  0.00    +0.241 C 
ATOM     81  N   GLN A   4      -7.652   5.955 -15.609  0.00  0.00    -0.297 N 
ATOM     82  H   GLN A   4      -7.818   5.091 -15.054  0.00  0.00    +0.150 HD
ATOM     83  O   GLU A   3      -6.186   7.284 -16.661  0.00  0.00    -0.273 OA
BRANCH  80  84
ATOM     84  CA  GLU A   3      -5.388   5.151 -15.825  0.00  0.00    +0.149 C 
BRANCH  84  87
ATOM     85  C   ASN A   2      -5.321   5.592 -13.412  0.00  0.00    +0.241 C 
ATOM     86  O   ASN A   2      -5.221   6.814 -13.576  0.00  0.00    -0.273 OA
ATOM     87  N   GLU A   3      -5.410   4.732 -14.420  0.00  0.00    -0.297 N 
ATOM     88  H   GLU A   3      -5.499   3.719 -14.204  0.00  0.00    +0.150 HD
BRANCH  85  89
ATOM     89  CA  ASN A   2      -5.338   4.976 -11.999  0.00  0.00    +0.158 C 
BRANCH  89  91
ATOM     90  C   GLY A   1      -7.683   4.333 -12.021  0.00  0.00    +0.240 C 
ATOM     91  N   ASN A   2      -6.411   3.999 -11.825  0.00  0.00    -0.297 N 
ATOM     92  H   ASN A   2      -6.176   3.026 -11.543  0.00  0.00    +0.150 HD
ATOM     93  O   GLY A   1      -8.029   5.488 -12.286  0.00  0.00    -0.274 OA
BRANCH  90  94
ATOM     94  CA  GLY A   1      -8.703   3.204 -11.899  0.00  0.00    +0.169 C 
BRANCH  94  95
ATOM     95  N   GLY A   1      -8.272   2.013 -12.620  0.00  0.00    -0.236 NA
ATOM     96  H   GLY A   1      -8.093   1.133 -12.095  0.00  0.00    +0.142 HD
ENDBRANCH  94  95
ENDBRANCH  90  94
ENDBRANCH  89  91
BRANCH  89  97
ATOM     97  CB  ASN A   2      -3.978   4.341 -11.661  0.00  0.00    +0.114 C 
BRANCH  97  98
ATOM     98  CG  ASN A   2      -3.733   4.253 -10.160  0.00  0.00    +0.222 C 
ATOM     99  OD1 ASN A   2      -4.373   4.955  -9.378  0.00  0.00    -0.275 OA
ATOM    100  ND2 ASN A   2      -2.785   3.399  -9.752  0.00  0.00    -0.329 N 
ATOM    101 HD21 ASN A   2      -2.566   3.311  -8.739  0.00  0.00    +0.145 HD
ATOM    102 HD22 ASN A   2      -2.268   2.824 -10.448  0.00  0.00    +0.145 HD
ENDBRANCH  97  98
ENDBRANCH  89  97
ENDBRANCH  85  89
ENDBRANCH  84  87
BRANCH  84 103
ATOM    103  CB  GLU A   3      -5.616   3.936 -16.735  0.00  0.00    +0.041 C 
BRANCH 103 104
ATOM    104  CG  GLU A   3      -5.742   4.246 -18.235  0.00  0.00    +0.116 C 
BRANCH 104 105
ATOM    105  CD  GLU A   3      -6.157   3.023 -19.048  0.00  0.00    +0.365 C 
ATOM    106  OE2 GLU A   3      -5.926   1.898 -18.560  0.00  0.00    -0.246 OA
ATOM    107  OE1 GLU A   3      -6.721   3.177 -20.161  0.00  0.00    -0.246 OA
ENDBRANCH 104 105
ENDBRANCH 103 104
ENDBRANCH  84 103
ENDBRANCH  80  84
ENDBRANCH  79  81
BRANCH  79 108
ATOM    108  CB  GLN A   4     -10.079   6.205 -15.553  0.00  0.00    +0.039 C 
BRANCH 108 109
ATOM    109  CG  GLN A   4     -10.392   5.096 -16.580  0.00  0.00    +0.087 C 
BRANCH 109 110
ATOM    110  CD  GLN A   4     -10.580   5.669 -17.993  0.00  0.00    +0.219 C 
ATOM    111  OE1 GLN A   4     -11.163   6.743 -18.160  0.00  0.00    -0.275 OA
ATOM    112  NE2 GLN A   4     -10.075   4.962 -19.004  0.00  0.00    -0.329 N 
ATOM    113 HE21 GLN A   4      -9.591   4.061 -18.817  0.00  0.00    +0.145 HD
ATOM    114 HE22 GLN A   4     -10.165   5.312 -19.979  0.00  0.00    +0.145 HD
ENDBRANCH 109 110
ENDBRANCH 108 109
ENDBRANCH  79 108
ENDBRANCH  75  79
ENDBRANCH  74  76
BRANCH  74 115
ATOM    115  CB  SER A   5      -7.182   8.988 -11.797  0.00  0.00    +0.166 C 
BRANCH 115 116
ATOM    116  OG  SER A   5      -6.880  10.126 -11.021  0.00  0.00    -0.380 OA
ATOM    117  H   SER A   5      -6.144  10.631 -11.450  0.00  0.00    +0.211 HD
ENDBRANCH 115 116
ENDBRANCH  74 115
ENDBRANCH  70  74
ENDBRANCH  69  72
BRANCH  69 118
ATOM    118  CB  PHE A   6      -3.308   9.281 -15.560  0.00  0.00    +0.055 C 
BRANCH 118 119
ATOM    119  CG  PHE A   6      -2.310   9.198 -14.434  0.00  0.00    -0.020 A 
ATOM    120  CD2 PHE A   6      -2.569   8.431 -13.317  0.00  0.00    -0.004 A 
ATOM    121  CE2 PHE A   6      -1.652   8.345 -12.281  0.00  0.00    -0.000 A 
ATOM    122  CZ  PHE A   6      -0.460   9.034 -12.349  0.00  0.00    -0.000 A 
ATOM    123  CE1 PHE A   6      -0.176   9.799 -13.470  0.00  0.00    -0.000 A 
ATOM    124  CD1 PHE A   6      -1.099   9.876 -14.506  0.00  0.00    -0.004 A 
ENDBRANCH 118 119
ENDBRANCH  69 118
ENDBRANCH  65  69
ENDBRANCH   1  67
BRANCH   1 125
ATOM    125  CB  ARG A   7      -7.782   9.743 -18.891  0.00  0.00    +0.033 C 
BRANCH 125 126
ATOM    126  CG  ARG A   7      -8.542  10.314 -20.074  0.00  0.00    +0.045 C 
BRANCH 126 127
ATOM    127  CD  ARG A   7      -9.680   9.399 -20.505  0.00  0.00    +0.174 C 
BRANCH 127 128
ATOM    128  NE  ARG A   7     -10.761  10.166 -21.120  0.00  0.00    -0.265 N 
ATOM    129  CZ  ARG A   7     -11.841  10.594 -20.470  0.00  0.00    +0.342 C 
ATOM    130  NH2 ARG A   7     -11.999  10.320 -19.180  0.00  0.00    -0.292 N 
ATOM    131 HH21 ARG A   7     -11.277   9.769 -18.673  0.00  0.00    +0.255 HD
ATOM    132 HH22 ARG A   7     -12.845  10.657 -18.677  0.00  0.00    +0.255 HD
ATOM    133  NH1 ARG A   7     -12.771  11.289 -21.114  0.00  0.00    -0.292 N 
ATOM    134 HH11 ARG A   7     -13.615  11.623 -20.606  0.00  0.00    +0.255 HD
ATOM    135 HH12 ARG A   7     -12.656  11.499 -22.126  0.00  0.00    +0.255 HD
ATOM    136  HE  ARG A   7     -10.681  10.392 -22.132  0.00  0.00    +0.259 HD
ENDBRANCH 127 128
ENDBRANCH 126 127
ENDBRANCH 125 126
ENDBRANCH   1 125
TORSDOF 55
REMARK  Name = ../refined-set-2016/3p9m/3p9m_pocket.pdb
REMARK  326 active torsions:
REMARK  status: ('A' for Active; 'I' for Inactive)
REMARK    1  A    between atoms: _1  and  _3
REMARK    2  A    between atoms: _3  and  _4
REMARK    3  A    between atoms: _3  and  _6
REMARK    4  A    between atoms: _6  and  _7
REMARK    5  A    between atoms: _10  and  _12
REMARK    6  A    between atoms: _12  and  _13
REMARK    7  A    between atoms: _12  and  _15
REMARK    8  A    between atoms: _15  and  _16
REMARK    9  A    between atoms: _16  and  _17
REMARK   10  A    between atoms: _17  and  _18
REMARK   11  A    between atoms: _27  and  _29
REMARK   12  A    between atoms: _29  and  _30
REMARK   13  A    between atoms: _29  and  _32
REMARK   14  A    between atoms: _32  and  _33
REMARK   15  A    between atoms: _38  and  _39
REMARK   16  A    between atoms: _41  and  _43
REMARK   17  A    between atoms: _43  and  _44
REMARK   18  A    between atoms: _43  and  _46
REMARK   19  A    between atoms: _46  and  _47
REMARK   20  A    between atoms: _53  and  _55
REMARK   21  A    between atoms: _55  and  _56
REMARK   22  A    between atoms: _55  and  _58
REMARK   23  A    between atoms: _61  and  _63
REMARK   24  A    between atoms: _63  and  _64
REMARK   25  A    between atoms: _63  and  _66
REMARK   26  A    between atoms: _66  and  _67
REMARK   27  A    between atoms: _70  and  _72
REMARK   28  A    between atoms: _72  and  _73
REMARK   29  A    between atoms: _72  and  _75
REMARK   30  A    between atoms: _75  and  _76
REMARK   31  A    between atoms: _81  and  _82
REMARK   32  A    between atoms: _84  and  _86
REMARK   33  A    between atoms: _86  and  _87
REMARK   34  A    between atoms: _86  and  _89
REMARK   35  A    between atoms: _89  and  _90
REMARK   36  A    between atoms: _90  and  _91
REMARK   37  A    between atoms: _93  and  _95
REMARK   38  A    between atoms: _95  and  _96
REMARK   39  A    between atoms: _95  and  _98
REMARK   40  A    between atoms: _98  and  _99
REMARK   41  A    between atoms: _99  and  _100
REMARK   42  A    between atoms: _103  and  _105
REMARK   43  A    between atoms: _105  and  _106
REMARK   44  A    between atoms: _105  and  _108
REMARK   45  A    between atoms: _111  and  _113
REMARK   46  A    between atoms: _113  and  _114
REMARK   47  A    between atoms: _116  and  _118
REMARK   48  A    between atoms: _118  and  _119
REMARK   49  A    between atoms: _118  and  _121
REMARK   50  A    between atoms: _121  and  _122
REMARK   51  A    between atoms: _128  and  _130
REMARK   52  A    between atoms: _130  and  _131
REMARK   53  A    between atoms: _130  and  _133
REMARK   54  A    between atoms: _136  and  _138
REMARK   55  A    between atoms: _138  and  _139
REMARK   56  A    between atoms: _138  and  _141
REMARK   57  A    between atoms: _141  and  _142
REMARK   58  A    between atoms: _148  and  _150
REMARK   59  A    between atoms: _150  and  _151
REMARK   60  A    between atoms: _150  and  _153
REMARK   61  A    between atoms: _153  and  _154
REMARK   62  A    between atoms: _159  and  _160
REMARK   63  A    between atoms: _162  and  _164
REMARK   64  A    between atoms: _164  and  _165
REMARK   65  A    between atoms: _164  and  _167
REMARK   66  A    between atoms: _167  and  _168
REMARK   67  A    between atoms: _168  and  _169
REMARK   68  A    between atoms: _171  and  _173
REMARK   69  A    between atoms: _173  and  _174
REMARK   70  A    between atoms: _173  and  _176
REMARK   71  A    between atoms: _176  and  _177
REMARK   72  A    between atoms: _182  and  _183
REMARK   73  A    between atoms: _185  and  _187
REMARK   74  A    between atoms: _187  and  _188
REMARK   75  A    between atoms: _187  and  _190
REMARK   76  A    between atoms: _190  and  _191
REMARK   77  A    between atoms: _191  and  _192
REMARK   78  A    between atoms: _192  and  _193
REMARK   79  A    between atoms: _202  and  _204
REMARK   80  A    between atoms: _204  and  _205
REMARK   81  A    between atoms: _204  and  _207
REMARK   82  A    between atoms: _207  and  _208
REMARK   83  A    between atoms: _208  and  _209
REMARK   84  A    between atoms: _212  and  _214
REMARK   85  A    between atoms: _214  and  _215
REMARK   86  A    between atoms: _214  and  _217
REMARK   87  A    between atoms: _217  and  _218
REMARK   88  A    between atoms: _218  and  _219
REMARK   89  A    between atoms: _219  and  _220
REMARK   90  A    between atoms: _220  and  _221
REMARK   91  A    between atoms: _225  and  _227
REMARK   92  A    between atoms: _227  and  _228
REMARK   93  A    between atoms: _231  and  _233
REMARK   94  A    between atoms: _233  and  _234
REMARK   95  A    between atoms: _236  and  _238
REMARK   96  A    between atoms: _238  and  _239
REMARK   97  A    between atoms: _238  and  _241
REMARK   98  A    between atoms: _241  and  _242
REMARK   99  A    between atoms: _247  and  _249
REMARK  100  A    between atoms: _249  and  _250
REMARK  101  A    between atoms: _249  and  _252
REMARK  102  A    between atoms: _252  and  _253
REMARK  103  A    between atoms: _253  and  _254
REMARK  104  A    between atoms: _257  and  _259
REMARK  105  A    between atoms: _259  and  _260
REMARK  106  A    between atoms: _259  and  _262
REMARK  107  A    between atoms: _262  and  _263
REMARK  108  A    between atoms: _263  and  _264
REMARK  109  A    between atoms: _269  and  _271
REMARK  110  A    between atoms: _271  and  _272
REMARK  111  A    between atoms: _271  and  _274
REMARK  112  A    between atoms: _274  and  _275
REMARK  113  A    between atoms: _277  and  _279
REMARK  114  A    between atoms: _279  and  _280
REMARK  115  A    between atoms: _279  and  _282
REMARK  116  A    between atoms: _282  and  _283
REMARK  117  A    between atoms: _289  and  _291
REMARK  118  A    between atoms: _291  and  _292
REMARK  119  A    between atoms: _291  and  _294
REMARK  120  A    between atoms: _294  and  _295
REMARK  121  A    between atoms: _295  and  _296
REMARK  122  A    between atoms: _296  and  _297
REMARK  123  A    between atoms: _306  and  _308
REMARK  124  A    between atoms: _308  and  _309
REMARK  125  A    between atoms: _308  and  _311
REMARK  126  A    between atoms: _314  and  _316
REMARK  127  A    between atoms: _316  and  _317
REMARK  128  A    between atoms: _316  and  _319
REMARK  129  A    between atoms: _319  and  _320
REMARK  130  A    between atoms: _323  and  _325
REMARK  131  A    between atoms: _325  and  _326
REMARK  132  A    between atoms: _325  and  _328
REMARK  133  A    between atoms: _328  and  _329
REMARK  134  A    between atoms: _332  and  _334
REMARK  135  A    between atoms: _334  and  _335
REMARK  136  A    between atoms: _334  and  _337
REMARK  137  A    between atoms: _337  and  _338
REMARK  138  A    between atoms: _338  and  _339
REMARK  139  A    between atoms: _339  and  _340
REMARK  140  A    between atoms: _349  and  _351
REMARK  141  A    between atoms: _351  and  _352
REMARK  142  A    between atoms: _351  and  _354
REMARK  143  A    between atoms: _354  and  _355
REMARK  144  A    between atoms: _358  and  _360
REMARK  145  A    between atoms: _360  and  _361
REMARK  146  A    between atoms: _360  and  _363
REMARK  147  A    between atoms: _363  and  _364
REMARK  148  A    between atoms: _367  and  _369
REMARK  149  A    between atoms: _369  and  _370
REMARK  150  A    between atoms: _369  and  _372
REMARK  151  A    between atoms: _372  and  _373
REMARK  152  A    between atoms: _378  and  _379
REMARK  153  A    between atoms: _381  and  _383
REMARK  154  A    between atoms: _383  and  _384
REMARK  155  A    between atoms: _383  and  _386
REMARK  156  A    between atoms: _386  and  _387
REMARK  157  A    between atoms: _392  and  _393
REMARK  158  A    between atoms: _395  and  _397
REMARK  159  A    between atoms: _397  and  _398
REMARK  160  A    between atoms: _397  and  _400
REMARK  161  A    between atoms: _400  and  _401
REMARK  162  A    between atoms: _404  and  _406
REMARK  163  A    between atoms: _406  and  _407
REMARK  164  A    between atoms: _406  and  _409
REMARK  165  A    between atoms: _409  and  _410
REMARK  166  A    between atoms: _410  and  _411
REMARK  167  A    between atoms: _416  and  _418
REMARK  168  A    between atoms: _418  and  _419
REMARK  169  A    between atoms: _418  and  _421
REMARK  170  A    between atoms: _424  and  _426
REMARK  171  A    between atoms: _426  and  _427
REMARK  172  A    between atoms: _426  and  _429
REMARK  173  A    between atoms: _429  and  _430
REMARK  174  A    between atoms: _433  and  _435
REMARK  175  A    between atoms: _435  and  _436
REMARK  176  A    between atoms: _435  and  _438
REMARK  177  A    between atoms: _438  and  _439
REMARK  178  A    between atoms: _441  and  _443
REMARK  179  A    between atoms: _443  and  _444
REMARK  180  A    between atoms: _446  and  _448
REMARK  181  A    between atoms: _448  and  _449
REMARK  182  A    between atoms: _448  and  _451
REMARK  183  A    between atoms: _451  and  _452
REMARK  184  A    between atoms: _452  and  _753
REMARK  185  A    between atoms: _453  and  _455
REMARK  186  A    between atoms: _455  and  _456
REMARK  187  A    between atoms: _455  and  _458
REMARK  188  A    between atoms: _458  and  _459
REMARK  189  A    between atoms: _464  and  _465
REMARK  190  A    between atoms: _467  and  _469
REMARK  191  A    between atoms: _469  and  _470
REMARK  192  A    between atoms: _469  and  _472
REMARK  193  A    between atoms: _472  and  _473
REMARK  194  A    between atoms: _473  and  _474
REMARK  195  A    between atoms: _479  and  _481
REMARK  196  A    between atoms: _481  and  _482
REMARK  197  A    between atoms: _481  and  _484
REMARK  198  A    between atoms: _484  and  _485
REMARK  199  A    between atoms: _485  and  _486
REMARK  200  A    between atoms: _491  and  _493
REMARK  201  A    between atoms: _493  and  _494
REMARK  202  A    between atoms: _493  and  _496
REMARK  203  A    between atoms: _496  and  _497
REMARK  204  A    between atoms: _502  and  _503
REMARK  205  A    between atoms: _505  and  _507
REMARK  206  A    between atoms: _507  and  _508
REMARK  207  A    between atoms: _511  and  _513
REMARK  208  A    between atoms: _513  and  _514
REMARK  209  A    between atoms: _513  and  _516
REMARK  210  A    between atoms: _516  and  _517
REMARK  211  A    between atoms: _522  and  _523
REMARK  212  A    between atoms: _525  and  _527
REMARK  213  A    between atoms: _527  and  _528
REMARK  214  A    between atoms: _527  and  _530
REMARK  215  A    between atoms: _530  and  _531
REMARK  216  A    between atoms: _536  and  _537
REMARK  217  A    between atoms: _539  and  _541
REMARK  218  A    between atoms: _541  and  _542
REMARK  219  A    between atoms: _541  and  _544
REMARK  220  A    between atoms: _544  and  _545
REMARK  221  A    between atoms: _548  and  _550
REMARK  222  A    between atoms: _550  and  _551
REMARK  223  A    between atoms: _554  and  _556
REMARK  224  A    between atoms: _556  and  _557
REMARK  225  A    between atoms: _560  and  _562
REMARK  226  A    between atoms: _562  and  _563
REMARK  227  A    between atoms: _562  and  _565
REMARK  228  A    between atoms: _565  and  _566
REMARK  229  A    between atoms: _569  and  _571
REMARK  230  A    between atoms: _571  and  _572
REMARK  231  A    between atoms: _571  and  _574
REMARK  232  A    between atoms: _574  and  _575
REMARK  233  A    between atoms: _578  and  _580
REMARK  234  A    between atoms: _580  and  _581
REMARK  235  A    between atoms: _580  and  _583
REMARK  236  A    between atoms: _583  and  _584
REMARK  237  A    between atoms: _587  and  _589
REMARK  238  A    between atoms: _589  and  _590
REMARK  239  A    between atoms: _589  and  _592
REMARK  240  A    between atoms: _592  and  _593
REMARK  241  A    between atoms: _593  and  _594
REMARK  242  A    between atoms: _594  and  _595
REMARK  243  A    between atoms: _595  and  _596
REMARK  244  A    between atoms: _600  and  _602
REMARK  245  A    between atoms: _602  and  _603
REMARK  246  A    between atoms: _602  and  _605
REMARK  247  A    between atoms: _605  and  _606
REMARK  248  A    between atoms: _611  and  _613
REMARK  249  A    between atoms: _613  and  _614
REMARK  250  A    between atoms: _613  and  _616
REMARK  251  A    between atoms: _616  and  _617
REMARK  252  A    between atoms: _617  and  _618
REMARK  253  A    between atoms: _618  and  _619
REMARK  254  A    between atoms: _619  and  _620
REMARK  255  A    between atoms: _624  and  _626
REMARK  256  A    between atoms: _626  and  _627
REMARK  257  A    between atoms: _626  and  _629
REMARK  258  A    between atoms: _629  and  _630
REMARK  259  A    between atoms: _640  and  _642
REMARK  260  A    between atoms: _642  and  _643
REMARK  261  A    between atoms: _646  and  _648
REMARK  262  A    between atoms: _648  and  _649
REMARK  263  A    between atoms: _648  and  _651
REMARK  264  A    between atoms: _651  and  _652
REMARK  265  A    between atoms: _652  and  _653
REMARK  266  A    between atoms: _656  and  _658
REMARK  267  A    between atoms: _658  and  _659
REMARK  268  A    between atoms: _658  and  _661
REMARK  269  A    between atoms: _661  and  _662
REMARK  270  A    between atoms: _662  and  _663
REMARK  271  A    between atoms: _666  and  _668
REMARK  272  A    between atoms: _668  and  _669
REMARK  273  A    between atoms: _668  and  _671
REMARK  274  A    between atoms: _671  and  _672
REMARK  275  A    between atoms: _672  and  _673
REMARK  276  A    between atoms: _673  and  _674
REMARK  277  A    between atoms: _683  and  _685
REMARK  278  A    between atoms: _685  and  _686
REMARK  279  A    between atoms: _685  and  _688
REMARK  280  A    between atoms: _688  and  _689
REMARK  281  A    between atoms: _692  and  _694
REMARK  282  A    between atoms: _694  and  _695
REMARK  283  A    between atoms: _694  and  _697
REMARK  284  A    between atoms: _697  and  _698
REMARK  285  A    between atoms: _698  and  _699
REMARK  286  A    between atoms: _699  and  _700
REMARK  287  A    between atoms: _709  and  _711
REMARK  288  A    between atoms: _711  and  _712
REMARK  289  A    between atoms: _715  and  _717
REMARK  290  A    between atoms: _717  and  _718
REMARK  291  A    between atoms: _717  and  _720
REMARK  292  A    between atoms: _720  and  _721
REMARK  293  A    between atoms: _726  and  _727
REMARK  294  A    between atoms: _729  and  _731
REMARK  295  A    between atoms: _731  and  _732
REMARK  296  A    between atoms: _731  and  _734
REMARK  297  A    between atoms: _734  and  _735
REMARK  298  A    between atoms: _738  and  _740
REMARK  299  A    between atoms: _740  and  _741
REMARK  300  A    between atoms: _740  and  _743
REMARK  301  A    between atoms: _743  and  _744
REMARK  302  A    between atoms: _747  and  _749
REMARK  303  A    between atoms: _749  and  _750
REMARK  304  A    between atoms: _749  and  _752
REMARK  305  A    between atoms: _752  and  _753
REMARK  306  A    between atoms: _754  and  _756
REMARK  307  A    between atoms: _756  and  _757
REMARK  308  A    between atoms: _756  and  _759
REMARK  309  A    between atoms: _762  and  _764
REMARK  310  A    between atoms: _764  and  _765
REMARK  311  A    between atoms: _764  and  _767
REMARK  312  A    between atoms: _767  and  _768
REMARK  313  A    between atoms: _768  and  _769
REMARK  314  A    between atoms: _772  and  _774
REMARK  315  A    between atoms: _774  and  _775
REMARK  316  A    between atoms: _774  and  _777
REMARK  317  A    between atoms: _777  and  _778
REMARK  318  A    between atoms: _788  and  _790
REMARK  319  A    between atoms: _790  and  _791
REMARK  320  A    between atoms: _790  and  _793
REMARK  321  A    between atoms: _793  and  _794
REMARK  322  A    between atoms: _797  and  _799
REMARK  323  A    between atoms: _799  and  _800
REMARK  324  A    between atoms: _799  and  _802
REMARK  325  A    between atoms: _802  and  _803
REMARK  326  A    between atoms: _808  and  _809
REMARK                            x       y       z     vdW  Elec       q    Type
REMARK                         _______ _______ _______ _____ _____    ______ ____
ROOT
ATOM      1  C   TYR A   1      -2.116  25.676 -17.105  0.00  0.00    +0.239 C 
ATOM      2  O   TYR A   1      -1.705  26.795 -16.798  0.00  0.00    -0.274 OA
ATOM      3  N   TYR A   2      -1.733  25.032 -18.204  0.00  0.00    -0.298 N 
ATOM      4  H   TYR A   2      -2.193  24.133 -18.454  0.00  0.00    +0.150 HD
ENDROOT
BRANCH   1   5
ATOM      5  CA  TYR A   1      -3.089  24.938 -16.198  0.00  0.00    +0.149 C 
BRANCH   5   6
ATOM      6  N   TYR A   1      -4.066  24.180 -16.974  0.00  0.00    -0.238 NA
ATOM      7  H   TYR A   1      -4.229  23.175 -16.761  0.00  0.00    +0.142 HD
ENDBRANCH   5   6
BRANCH   5   8
ATOM      8  CB  TYR A   1      -2.262  24.045 -15.267  0.00  0.00    +0.053 C 
BRANCH   8   9
ATOM      9  CG  TYR A   1      -3.005  23.395 -14.123  0.00  0.00    -0.020 A 
ATOM     10  CD2 TYR A   1      -2.392  22.409 -13.367  0.00  0.00    -0.001 A 
ATOM     11  CE2 TYR A   1      -3.043  21.797 -12.323  0.00  0.00    +0.036 A 
ATOM     12  CZ  TYR A   1      -4.328  22.166 -12.013  0.00  0.00    +0.134 A 
ATOM     13  CE1 TYR A   1      -4.977  23.144 -12.747  0.00  0.00    +0.036 A 
ATOM     14  CD1 TYR A   1      -4.308  23.756 -13.800  0.00  0.00    -0.001 A 
BRANCH  12  15
ATOM     15  OH  TYR A   1      -4.950  21.531 -10.971  0.00  0.00    -0.506 OA
ATOM     16  HH  TYR A   1      -5.001  20.561 -11.160  0.00  0.00    +0.292 HD
ENDBRANCH  12  15
ENDBRANCH   8   9
ENDBRANCH   5   8
ENDBRANCH   1   5
BRANCH   3  17
ATOM     17  CA  TYR A   2      -0.679  25.561 -19.069  0.00  0.00    +0.141 C 
BRANCH  17  18
ATOM     18  C   TYR A   2      -1.221  26.284 -20.300  0.00  0.00    +0.227 C 
ATOM     19  O   TYR A   2      -0.450  26.752 -21.137  0.00  0.00    -0.286 OA
ENDBRANCH  17  18
BRANCH  17  20
ATOM     20  CB  TYR A   2       0.270  24.441 -19.512  0.00  0.00    +0.054 C 
BRANCH  20  21
ATOM     21  CG  TYR A   2       1.179  23.929 -18.425  0.00  0.00    -0.020 A 
ATOM     22  CD2 TYR A   2       0.876  22.762 -17.728  0.00  0.00    -0.001 A 
ATOM     23  CE2 TYR A   2       1.707  22.289 -16.738  0.00  0.00    +0.036 A 
ATOM     24  CZ  TYR A   2       2.854  22.985 -16.421  0.00  0.00    +0.134 A 
ATOM     25  CE1 TYR A   2       3.180  24.143 -17.097  0.00  0.00    +0.036 A 
ATOM     26  CD1 TYR A   2       2.341  24.610 -18.091  0.00  0.00    -0.001 A 
BRANCH  24  27
ATOM     27  OH  TYR A   2       3.692  22.518 -15.435  0.00  0.00    -0.506 OA
ATOM     28  HH  TYR A   2       4.461  23.134 -15.338  0.00  0.00    +0.292 HD
ENDBRANCH  24  27
ENDBRANCH  20  21
ENDBRANCH  17  20
ENDBRANCH   3  17
TORSDOF 10
REMARK  Name = ../refined-set-2016/3p9m/3p9m_pocket.pdb
REMARK  326 active torsions:
REMARK  status: ('A' for Active; 'I' for Inactive)
REMARK    1  A    between atoms: _1  and  _3
REMARK    2  A    between atoms: _3  and  _4
REMARK    3  A    between atoms: _3  and  _6
REMARK    4  A    between atoms: _6  and  _7
REMARK    5  A    between atoms: _10  and  _12
REMARK    6  A    between atoms: _12  and  _13
REMARK    7  A    between atoms: _12  and  _15
REMARK    8  A    between atoms: _15  and  _16
REMARK    9  A    between atoms: _16  and  _17
REMARK   10  A    between atoms: _17  and  _18
REMARK   11  A    between atoms: _27  and  _29
REMARK   12  A    between atoms: _29  and  _30
REMARK   13  A    between atoms: _29  and  _32
REMARK   14  A    between atoms: _32  and  _33
REMARK   15  A    between atoms: _38  and  _39
REMARK   16  A    between atoms: _41  and  _43
REMARK   17  A    between atoms: _43  and  _44
REMARK   18  A    between atoms: _43  and  _46
REMARK   19  A    between atoms: _46  and  _47
REMARK   20  A    between atoms: _53  and  _55
REMARK   21  A    between atoms: _55  and  _56
REMARK   22  A    between atoms: _55  and  _58
REMARK   23  A    between atoms: _61  and  _63
REMARK   24  A    between atoms: _63  and  _64
REMARK   25  A    between atoms: _63  and  _66
REMARK   26  A    between atoms: _66  and  _67
REMARK   27  A    between atoms: _70  and  _72
REMARK   28  A    between atoms: _72  and  _73
REMARK   29  A    between atoms: _72  and  _75
REMARK   30  A    between atoms: _75  and  _76
REMARK   31  A    between atoms: _81  and  _82
REMARK   32  A    between atoms: _84  and  _86
REMARK   33  A    between atoms: _86  and  _87
REMARK   34  A    between atoms: _86  and  _89
REMARK   35  A    between atoms: _89  and  _90
REMARK   36  A    between atoms: _90  and  _91
REMARK   37  A    between atoms: _93  and  _95
REMARK   38  A    between atoms: _95  and  _96
REMARK   39  A    between atoms: _95  and  _98
REMARK   40  A    between atoms: _98  and  _99
REMARK   41  A    between atoms: _99  and  _100
REMARK   42  A    between atoms: _103  and  _105
REMARK   43  A    between atoms: _105  and  _106
REMARK   44  A    between atoms: _105  and  _108
REMARK   45  A    between atoms: _111  and  _113
REMARK   46  A    between atoms: _113  and  _114
REMARK   47  A    between atoms: _116  and  _118
REMARK   48  A    between atoms: _118  and  _119
REMARK   49  A    between atoms: _118  and  _121
REMARK   50  A    between atoms: _121  and  _122
REMARK   51  A    between atoms: _128  and  _130
REMARK   52  A    between atoms: _130  and  _131
REMARK   53  A    between atoms: _130  and  _133
REMARK   54  A    between atoms: _136  and  _138
REMARK   55  A    between atoms: _138  and  _139
REMARK   56  A    between atoms: _138  and  _141
REMARK   57  A    between atoms: _141  and  _142
REMARK   58  A    between atoms: _148  and  _150
REMARK   59  A    between atoms: _150  and  _151
REMARK   60  A    between atoms: _150  and  _153
REMARK   61  A    between atoms: _153  and  _154
REMARK   62  A    between atoms: _159  and  _160
REMARK   63  A    between atoms: _162  and  _164
REMARK   64  A    between atoms: _164  and  _165
REMARK   65  A    between atoms: _164  and  _167
REMARK   66  A    between atoms: _167  and  _168
REMARK   67  A    between atoms: _168  and  _169
REMARK   68  A    between atoms: _171  and  _173
REMARK   69  A    between atoms: _173  and  _174
REMARK   70  A    between atoms: _173  and  _176
REMARK   71  A    between atoms: _176  and  _177
REMARK   72  A    between atoms: _182  and  _183
REMARK   73  A    between atoms: _185  and  _187
REMARK   74  A    between atoms: _187  and  _188
REMARK   75  A    between atoms: _187  and  _190
REMARK   76  A    between atoms: _190  and  _191
REMARK   77  A    between atoms: _191  and  _192
REMARK   78  A    between atoms: _192  and  _193
REMARK   79  A    between atoms: _202  and  _204
REMARK   80  A    between atoms: _204  and  _205
REMARK   81  A    between atoms: _204  and  _207
REMARK   82  A    between atoms: _207  and  _208
REMARK   83  A    between atoms: _208  and  _209
REMARK   84  A    between atoms: _212  and  _214
REMARK   85  A    between atoms: _214  and  _215
REMARK   86  A    between atoms: _214  and  _217
REMARK   87  A    between atoms: _217  and  _218
REMARK   88  A    between atoms: _218  and  _219
REMARK   89  A    between atoms: _219  and  _220
REMARK   90  A    between atoms: _220  and  _221
REMARK   91  A    between atoms: _225  and  _227
REMARK   92  A    between atoms: _227  and  _228
REMARK   93  A    between atoms: _231  and  _233
REMARK   94  A    between atoms: _233  and  _234
REMARK   95  A    between atoms: _236  and  _238
REMARK   96  A    between atoms: _238  and  _239
REMARK   97  A    between atoms: _238  and  _241
REMARK   98  A    between atoms: _241  and  _242
REMARK   99  A    between atoms: _247  and  _249
REMARK  100  A    between atoms: _249  and  _250
REMARK  101  A    between atoms: _249  and  _252
REMARK  102  A    between atoms: _252  and  _253
REMARK  103  A    between atoms: _253  and  _254
REMARK  104  A    between atoms: _257  and  _259
REMARK  105  A    between atoms: _259  and  _260
REMARK  106  A    between atoms: _259  and  _262
REMARK  107  A    between atoms: _262  and  _263
REMARK  108  A    between atoms: _263  and  _264
REMARK  109  A    between atoms: _269  and  _271
REMARK  110  A    between atoms: _271  and  _272
REMARK  111  A    between atoms: _271  and  _274
REMARK  112  A    between atoms: _274  and  _275
REMARK  113  A    between atoms: _277  and  _279
REMARK  114  A    between atoms: _279  and  _280
REMARK  115  A    between atoms: _279  and  _282
REMARK  116  A    between atoms: _282  and  _283
REMARK  117  A    between atoms: _289  and  _291
REMARK  118  A    between atoms: _291  and  _292
REMARK  119  A    between atoms: _291  and  _294
REMARK  120  A    between atoms: _294  and  _295
REMARK  121  A    between atoms: _295  and  _296
REMARK  122  A    between atoms: _296  and  _297
REMARK  123  A    between atoms: _306  and  _308
REMARK  124  A    between atoms: _308  and  _309
REMARK  125  A    between atoms: _308  and  _311
REMARK  126  A    between atoms: _314  and  _316
REMARK  127  A    between atoms: _316  and  _317
REMARK  128  A    between atoms: _316  and  _319
REMARK  129  A    between atoms: _319  and  _320
REMARK  130  A    between atoms: _323  and  _325
REMARK  131  A    between atoms: _325  and  _326
REMARK  132  A    between atoms: _325  and  _328
REMARK  133  A    between atoms: _328  and  _329
REMARK  134  A    between atoms: _332  and  _334
REMARK  135  A    between atoms: _334  and  _335
REMARK  136  A    between atoms: _334  and  _337
REMARK  137  A    between atoms: _337  and  _338
REMARK  138  A    between atoms: _338  and  _339
REMARK  139  A    between atoms: _339  and  _340
REMARK  140  A    between atoms: _349  and  _351
REMARK  141  A    between atoms: _351  and  _352
REMARK  142  A    between atoms: _351  and  _354
REMARK  143  A    between atoms: _354  and  _355
REMARK  144  A    between atoms: _358  and  _360
REMARK  145  A    between atoms: _360  and  _361
REMARK  146  A    between atoms: _360  and  _363
REMARK  147  A    between atoms: _363  and  _364
REMARK  148  A    between atoms: _367  and  _369
REMARK  149  A    between atoms: _369  and  _370
REMARK  150  A    between atoms: _369  and  _372
REMARK  151  A    between atoms: _372  and  _373
REMARK  152  A    between atoms: _378  and  _379
REMARK  153  A    between atoms: _381  and  _383
REMARK  154  A    between atoms: _383  and  _384
REMARK  155  A    between atoms: _383  and  _386
REMARK  156  A    between atoms: _386  and  _387
REMARK  157  A    between atoms: _392  and  _393
REMARK  158  A    between atoms: _395  and  _397
REMARK  159  A    between atoms: _397  and  _398
REMARK  160  A    between atoms: _397  and  _400
REMARK  161  A    between atoms: _400  and  _401
REMARK  162  A    between atoms: _404  and  _406
REMARK  163  A    between atoms: _406  and  _407
REMARK  164  A    between atoms: _406  and  _409
REMARK  165  A    between atoms: _409  and  _410
REMARK  166  A    between atoms: _410  and  _411
REMARK  167  A    between atoms: _416  and  _418
REMARK  168  A    between atoms: _418  and  _419
REMARK  169  A    between atoms: _418  and  _421
REMARK  170  A    between atoms: _424  and  _426
REMARK  171  A    between atoms: _426  and  _427
REMARK  172  A    between atoms: _426  and  _429
REMARK  173  A    between atoms: _429  and  _430
REMARK  174  A    between atoms: _433  and  _435
REMARK  175  A    between atoms: _435  and  _436
REMARK  176  A    between atoms: _435  and  _438
REMARK  177  A    between atoms: _438  and  _439
REMARK  178  A    between atoms: _441  and  _443
REMARK  179  A    between atoms: _443  and  _444
REMARK  180  A    between atoms: _446  and  _448
REMARK  181  A    between atoms: _448  and  _449
REMARK  182  A    between atoms: _448  and  _451
REMARK  183  A    between atoms: _451  and  _452
REMARK  184  A    between atoms: _452  and  _753
REMARK  185  A    between atoms: _453  and  _455
REMARK  186  A    between atoms: _455  and  _456
REMARK  187  A    between atoms: _455  and  _458
REMARK  188  A    between atoms: _458  and  _459
REMARK  189  A    between atoms: _464  and  _465
REMARK  190  A    between atoms: _467  and  _469
REMARK  191  A    between atoms: _469  and  _470
REMARK  192  A    between atoms: _469  and  _472
REMARK  193  A    between atoms: _472  and  _473
REMARK  194  A    between atoms: _473  and  _474
REMARK  195  A    between atoms: _479  and  _481
REMARK  196  A    between atoms: _481  and  _482
REMARK  197  A    between atoms: _481  and  _484
REMARK  198  A    between atoms: _484  and  _485
REMARK  199  A    between atoms: _485  and  _486
REMARK  200  A    between atoms: _491  and  _493
REMARK  201  A    between atoms: _493  and  _494
REMARK  202  A    between atoms: _493  and  _496
REMARK  203  A    between atoms: _496  and  _497
REMARK  204  A    between atoms: _502  and  _503
REMARK  205  A    between atoms: _505  and  _507
REMARK  206  A    between atoms: _507  and  _508
REMARK  207  A    between atoms: _511  and  _513
REMARK  208  A    between atoms: _513  and  _514
REMARK  209  A    between atoms: _513  and  _516
REMARK  210  A    between atoms: _516  and  _517
REMARK  211  A    between atoms: _522  and  _523
REMARK  212  A    between atoms: _525  and  _527
REMARK  213  A    between atoms: _527  and  _528
REMARK  214  A    between atoms: _527  and  _530
REMARK  215  A    between atoms: _530  and  _531
REMARK  216  A    between atoms: _536  and  _537
REMARK  217  A    between atoms: _539  and  _541
REMARK  218  A    between atoms: _541  and  _542
REMARK  219  A    between atoms: _541  and  _544
REMARK  220  A    between atoms: _544  and  _545
REMARK  221  A    between atoms: _548  and  _550
REMARK  222  A    between atoms: _550  and  _551
REMARK  223  A    between atoms: _554  and  _556
REMARK  224  A    between atoms: _556  and  _557
REMARK  225  A    between atoms: _560  and  _562
REMARK  226  A    between atoms: _562  and  _563
REMARK  227  A    between atoms: _562  and  _565
REMARK  228  A    between atoms: _565  and  _566
REMARK  229  A    between atoms: _569  and  _571
REMARK  230  A    between atoms: _571  and  _572
REMARK  231  A    between atoms: _571  and  _574
REMARK  232  A    between atoms: _574  and  _575
REMARK  233  A    between atoms: _578  and  _580
REMARK  234  A    between atoms: _580  and  _581
REMARK  235  A    between atoms: _580  and  _583
REMARK  236  A    between atoms: _583  and  _584
REMARK  237  A    between atoms: _587  and  _589
REMARK  238  A    between atoms: _589  and  _590
REMARK  239  A    between atoms: _589  and  _592
REMARK  240  A    between atoms: _592  and  _593
REMARK  241  A    between atoms: _593  and  _594
REMARK  242  A    between atoms: _594  and  _595
REMARK  243  A    between atoms: _595  and  _596
REMARK  244  A    between atoms: _600  and  _602
REMARK  245  A    between atoms: _602  and  _603
REMARK  246  A    between atoms: _602  and  _605
REMARK  247  A    between atoms: _605  and  _606
REMARK  248  A    between atoms: _611  and  _613
REMARK  249  A    between atoms: _613  and  _614
REMARK  250  A    between atoms: _613  and  _616
REMARK  251  A    between atoms: _616  and  _617
REMARK  252  A    between atoms: _617  and  _618
REMARK  253  A    between atoms: _618  and  _619
REMARK  254  A    between atoms: _619  and  _620
REMARK  255  A    between atoms: _624  and  _626
REMARK  256  A    between atoms: _626  and  _627
REMARK  257  A    between atoms: _626  and  _629
REMARK  258  A    between atoms: _629  and  _630
REMARK  259  A    between atoms: _640  and  _642
REMARK  260  A    between atoms: _642  and  _643
REMARK  261  A    between atoms: _646  and  _648
REMARK  262  A    between atoms: _648  and  _649
REMARK  263  A    between atoms: _648  and  _651
REMARK  264  A    between atoms: _651  and  _652
REMARK  265  A    between atoms: _652  and  _653
REMARK  266  A    between atoms: _656  and  _658
REMARK  267  A    between atoms: _658  and  _659
REMARK  268  A    between atoms: _658  and  _661
REMARK  269  A    between atoms: _661  and  _662
REMARK  270  A    between atoms: _662  and  _663
REMARK  271  A    between atoms: _666  and  _668
REMARK  272  A    between atoms: _668  and  _669
REMARK  273  A    between atoms: _668  and  _671
REMARK  274  A    between atoms: _671  and  _672
REMARK  275  A    between atoms: _672  and  _673
REMARK  276  A    between atoms: _673  and  _674
REMARK  277  A    between atoms: _683  and  _685
REMARK  278  A    between atoms: _685  and  _686
REMARK  279  A    between atoms: _685  and  _688
REMARK  280  A    between atoms: _688  and  _689
REMARK  281  A    between atoms: _692  and  _694
REMARK  282  A    between atoms: _694  and  _695
REMARK  283  A    between atoms: _694  and  _697
REMARK  284  A    between atoms: _697  and  _698
REMARK  285  A    between atoms: _698  and  _699
REMARK  286  A    between atoms: _699  and  _700
REMARK  287  A    between atoms: _709  and  _711
REMARK  288  A    between atoms: _711  and  _712
REMARK  289  A    between atoms: _715  and  _717
REMARK  290  A    between atoms: _717  and  _718
REMARK  291  A    between atoms: _717  and  _720
REMARK  292  A    between atoms: _720  and  _721
REMARK  293  A    between atoms: _726  and  _727
REMARK  294  A    between atoms: _729  and  _731
REMARK  295  A    between atoms: _731  and  _732
REMARK  296  A    between atoms: _731  and  _734
REMARK  297  A    between atoms: _734  and  _735
REMARK  298  A    between atoms: _738  and  _740
REMARK  299  A    between atoms: _740  and  _741
REMARK  300  A    between atoms: _740  and  _743
REMARK  301  A    between atoms: _743  and  _744
REMARK  302  A    between atoms: _747  and  _749
REMARK  303  A    between atoms: _749  and  _750
REMARK  304  A    between atoms: _749  and  _752
REMARK  305  A    between atoms: _752  and  _753
REMARK  306  A    between atoms: _754  and  _756
REMARK  307  A    between atoms: _756  and  _757
REMARK  308  A    between atoms: _756  and  _759
REMARK  309  A    between atoms: _762  and  _764
REMARK  310  A    between atoms: _764  and  _765
REMARK  311  A    between atoms: _764  and  _767
REMARK  312  A    between atoms: _767  and  _768
REMARK  313  A    between atoms: _768  and  _769
REMARK  314  A    between atoms: _772  and  _774
REMARK  315  A    between atoms: _774  and  _775
REMARK  316  A    between atoms: _774  and  _777
REMARK  317  A    between atoms: _777  and  _778
REMARK  318  A    between atoms: _788  and  _790
REMARK  319  A    between atoms: _790  and  _791
REMARK  320  A    between atoms: _790  and  _793
REMARK  321  A    between atoms: _793  and  _794
REMARK  322  A    between atoms: _797  and  _799
REMARK  323  A    between atoms: _799  and  _800
REMARK  324  A    between atoms: _799  and  _802
REMARK  325  A    between atoms: _802  and  _803
REMARK  326  A    between atoms: _808  and  _809
REMARK                            x       y       z     vdW  Elec       q    Type
REMARK                         _______ _______ _______ _____ _____    ______ ____
ROOT
ATOM      1  SG  CYS A   2       6.567   1.321  -1.008  0.00  0.00    -0.080 S 
ENDROOT
BRANCH   1   2
ATOM      2  SG  CYS A   7       8.341   0.911  -0.080  0.00  0.00    -0.080 S 
BRANCH   2   3
ATOM      3  CB  CYS A   7       8.907   2.596   0.290  0.00  0.00    +0.096 C 
BRANCH   3   4
ATOM      4  CA  CYS A   7       9.860   3.211  -0.756  0.00  0.00    +0.149 C 
BRANCH   4   7
ATOM      5  C   LEU A   6       8.671   4.246  -2.586  0.00  0.00    +0.243 C 
ATOM      6  O   LEU A   6       8.736   5.356  -2.067  0.00  0.00    -0.273 OA
ATOM      7  N   CYS A   7       9.256   3.170  -2.073  0.00  0.00    -0.297 N 
ATOM      8  H   CYS A   7       9.281   2.287  -2.623  0.00  0.00    +0.150 HD
BRANCH   5   9
ATOM      9  CA  LEU A   6       7.915   4.022  -3.873  0.00  0.00    +0.176 C 
BRANCH   9  11
ATOM     10  C   TRP A   5       6.972   5.091  -5.795  0.00  0.00    +0.243 C 
ATOM     11  N   LEU A   6       7.370   5.197  -4.530  0.00  0.00    -0.295 N 
ATOM     12  H   LEU A   6       7.293   6.102  -4.023  0.00  0.00    +0.150 HD
ATOM     13  O   TRP A   5       7.075   4.037  -6.428  0.00  0.00    -0.273 OA
BRANCH  10  14
ATOM     14  CA  TRP A   5       6.381   6.338  -6.458  0.00  0.00    +0.178 C 
BRANCH  14  17
ATOM     15  C   GLU A   4       7.528   7.662  -8.184  0.00  0.00    +0.241 C 
ATOM     16  O   GLU A   4       7.570   8.675  -7.497  0.00  0.00    -0.273 OA
ATOM     17  N   TRP A   5       7.011   6.511  -7.766  0.00  0.00    -0.295 N 
ATOM     18  H   TRP A   5       7.057   5.690  -8.403  0.00  0.00    +0.150 HD
BRANCH  15  19
ATOM     19  CA  GLU A   4       8.045   7.676  -9.615  0.00  0.00    +0.149 C 
BRANCH  19  21
ATOM     20  C   VAL A   3       6.461   8.330 -11.334  0.00  0.00    +0.241 C 
ATOM     21  N   GLU A   4       7.248   8.655 -10.318  0.00  0.00    -0.297 N 
ATOM     22  H   GLU A   4       7.293   9.649 -10.016  0.00  0.00    +0.150 HD
ATOM     23  O   VAL A   3       6.523   7.250 -11.931  0.00  0.00    -0.273 OA
BRANCH  20  24
ATOM     24  CA  VAL A   3       5.463   9.400 -11.761  0.00  0.00    +0.149 C 
BRANCH  24  26
ATOM     25  C   CYS A   2       5.384  10.634 -13.845  0.00  0.00    +0.241 C 
ATOM     26  N   VAL A   3       5.434   9.469 -13.208  0.00  0.00    -0.297 N 
ATOM     27  H   VAL A   3       5.453   8.588 -13.760  0.00  0.00    +0.150 HD
ATOM     28  O   CYS A   2       5.379  11.718 -13.273  0.00  0.00    -0.273 OA
BRANCH  25  29
ATOM     29  CA  CYS A   2       5.335  10.555 -15.359  0.00  0.00    +0.149 C 
BRANCH  29  31
ATOM     30  C   THR A   1       3.582  11.463 -16.772  0.00  0.00    +0.238 C 
ATOM     31  N   CYS A   2       4.577  11.670 -15.917  0.00  0.00    -0.297 N 
ATOM     32  H   CYS A   2       4.820  12.643 -15.641  0.00  0.00    +0.150 HD
ATOM     33  O   THR A   1       3.306  10.350 -17.224  0.00  0.00    -0.274 OA
BRANCH  30  34
ATOM     34  CA  THR A   1       2.798  12.684 -17.227  0.00  0.00    +0.145 C 
BRANCH  34  35
ATOM     35  N   THR A   1       2.714  12.539 -18.669  0.00  0.00    -0.238 NA
ATOM     36  H   THR A   1       2.155  11.760 -19.072  0.00  0.00    +0.142 HD
ENDBRANCH  34  35
BRANCH  34  37
ATOM     37  CB  THR A   1       1.417  12.681 -16.563  0.00  0.00    +0.025 C 
ATOM     38  CG2 THR A   1       1.570  12.689 -15.041  0.00  0.00    +0.002 C 
BRANCH  37  39
ATOM     39  CG1 THR A   1       0.593  13.892 -17.015  0.00  0.00    +0.002 C 
ATOM     40  CD1 THR A   1      -0.800  13.999 -16.351  0.00  0.00    +0.000 C 
ENDBRANCH  37  39
ENDBRANCH  34  37
ENDBRANCH  30  34
ENDBRANCH  29  31
BRANCH  29  41
ATOM     41  CB  CYS A   2       6.763  10.542 -15.888  0.00  0.00    +0.039 C 
BRANCH  41  42
ATOM     42  CG  CYS A   2       6.910  10.019 -17.289  0.00  0.00    +0.087 C 
BRANCH  42  43
ATOM     43  CD  CYS A   2       8.228  10.467 -17.881  0.00  0.00    +0.219 C 
ATOM     44  NE2 CYS A   2       9.215   9.568 -17.915  0.00  0.00    -0.329 N 
ATOM     45 HE21 CYS A   2       9.048   8.599 -17.576  0.00  0.00    +0.145 HD
ATOM     46 HE22 CYS A   2      10.151   9.837 -18.280  0.00  0.00    +0.145 HD
ATOM     47  OE1 CYS A   2       8.366  11.625 -18.267  0.00  0.00    -0.275 OA
ENDBRANCH  42  43
ENDBRANCH  41  42
ENDBRANCH  29  41
ENDBRANCH  25  29
ENDBRANCH  24  26
BRANCH  24  48
ATOM     48  CB  VAL A   3       4.070   9.032 -11.172  0.00  0.00    +0.027 C 
ATOM     49  CG2 VAL A   3       4.049   9.297  -9.663  0.00  0.00    +0.002 C 
ATOM     50  CG1 VAL A   3       2.971   9.799 -11.862  0.00  0.00    +0.002 C 
ENDBRANCH  24  48
ENDBRANCH  20  24
ENDBRANCH  19  21
BRANCH  19  51
ATOM     51  CB  GLU A   4       9.554   8.007  -9.665  0.00  0.00    +0.027 C 
ATOM     52  CG2 GLU A   4      10.324   7.076  -8.746  0.00  0.00    +0.002 C 
BRANCH  51  53
ATOM     53  CG1 GLU A   4      10.067   7.874 -11.102  0.00  0.00    +0.002 C 
ATOM     54  CD1 GLU A   4      11.513   8.349 -11.295  0.00  0.00    +0.000 C 
ENDBRANCH  51  53
ENDBRANCH  19  51
ENDBRANCH  15  19
ENDBRANCH  14  17
BRANCH  14  55
ATOM     55  CB  TRP A   5       4.867   6.167  -6.638  0.00  0.00    +0.166 C 
BRANCH  55  56
ATOM     56  O   TRP A   5       4.184   6.036  -5.406  0.00  0.00    -0.380 OA
ATOM     57  H   TRP A   5       4.525   5.241  -4.924  0.00  0.00    +0.211 HD
ENDBRANCH  55  56
ENDBRANCH  14  55
ENDBRANCH  10  14
ENDBRANCH   9  11
ENDBRANCH   5   9
ENDBRANCH   4   7
BRANCH   4  58
ATOM     58  C   CYS A   7      11.195   2.497  -0.742  0.00  0.00    +0.228 C 
ATOM     59  O   CYS A   7      11.391   1.502  -1.440  0.00  0.00    -0.286 OA
ENDBRANCH   4  58
ENDBRANCH   3   4
ENDBRANCH   2   3
ENDBRANCH   1   2
BRANCH   1  60
ATOM     60  CB  CYS A   2       5.238   1.385   0.235  0.00  0.00    +0.098 C 
BRANCH  60  61
ATOM     61  CA  CYS A   2       4.645   0.020   0.606  0.00  0.00    +0.160 C 
BRANCH  61  62
ATOM     62  N   CYS A   2       3.482   0.179   1.476  0.00  0.00    -0.296 N 
ATOM     63  H   CYS A   2       3.258   1.116   1.867  0.00  0.00    +0.150 HD
ATOM     64  C   THR A   1       2.706  -0.860   1.774  0.00  0.00    +0.241 C 
ATOM     65  O   THR A   1       2.999  -2.018   1.486  0.00  0.00    -0.274 OA
BRANCH  64  66
ATOM     66  CA  THR A   1       1.408  -0.558   2.510  0.00  0.00    +0.172 C 
BRANCH  66  67
ATOM     67  CB  THR A   1       0.452   0.161   1.560  0.00  0.00    +0.135 C 
ATOM     68  CG2 THR A   1      -0.022  -0.763   0.462  0.00  0.00    +0.034 C 
BRANCH  67  69
ATOM     69  OG1 THR A   1      -0.664   0.637   2.312  0.00  0.00    -0.383 OA
ATOM     70  HG1 THR A   1      -1.292   1.106   1.707  0.00  0.00    +0.210 HD
ENDBRANCH  67  69
ENDBRANCH  66  67
BRANCH  66  71
ATOM     71  N   THR A   1       1.620   0.257   3.679  0.00  0.00    -0.236 NA
ATOM     72  H   THR A   1       0.957   1.038   3.858  0.00  0.00    +0.142 HD
ENDBRANCH  66  71
ENDBRANCH  64  66
ENDBRANCH  61  62
BRANCH  61  73
ATOM     73  C   CYS A   2       5.692  -0.893   1.263  0.00  0.00    +0.242 C 
ATOM     74  N   VAL A   3       6.034  -0.590   2.505  0.00  0.00    -0.297 N 
ATOM     75  H   VAL A   3       5.621   0.249   2.959  0.00  0.00    +0.150 HD
ATOM     76  O   CYS A   2       6.163  -1.861   0.666  0.00  0.00    -0.273 OA
BRANCH  74  77
ATOM     77  CA  VAL A   3       6.983  -1.416   3.248  0.00  0.00    +0.149 C 
BRANCH  77  78
ATOM     78  C   VAL A   3       6.498  -2.865   3.333  0.00  0.00    +0.241 C 
ATOM     79  N   GLU A   4       5.218  -3.033   3.645  0.00  0.00    -0.297 N 
ATOM     80  H   GLU A   4       4.614  -2.194   3.762  0.00  0.00    +0.150 HD
ATOM     81  O   VAL A   3       7.266  -3.806   3.109  0.00  0.00    -0.273 OA
BRANCH  79  82
ATOM     82  CA  GLU A   4       4.633  -4.355   3.828  0.00  0.00    +0.149 C 
BRANCH  82  83
ATOM     83  C   GLU A   4       4.656  -5.205   2.558  0.00  0.00    +0.241 C 
ATOM     84  O   GLU A   4       5.076  -6.365   2.579  0.00  0.00    -0.273 OA
ATOM     85  N   TRP A   5       4.234  -4.632   1.439  0.00  0.00    -0.297 N 
ATOM     86  H   TRP A   5       3.828  -3.675   1.453  0.00  0.00    +0.150 HD
BRANCH  85  87
ATOM     87  CA  TRP A   5       4.351  -5.372   0.191  0.00  0.00    +0.153 C 
BRANCH  87  88
ATOM     88  C   TRP A   5       5.808  -5.696  -0.166  0.00  0.00    +0.241 C 
ATOM     89  N   LEU A   6       6.726  -4.755   0.052  0.00  0.00    -0.298 N 
ATOM     90  H   LEU A   6       6.445  -3.839   0.457  0.00  0.00    +0.150 HD
ATOM     91  O   TRP A   5       6.096  -6.798  -0.634  0.00  0.00    -0.273 OA
BRANCH  89  92
ATOM     92  CA  LEU A   6       8.135  -5.011  -0.279  0.00  0.00    +0.137 C 
BRANCH  92  93
ATOM     93  C   LEU A   6       8.613  -6.238   0.484  0.00  0.00    +0.227 C 
ATOM     94  O   LEU A   6       9.330  -7.083  -0.049  0.00  0.00    -0.286 OA
ENDBRANCH  92  93
BRANCH  92  95
ATOM     95  CB  LEU A   6       9.024  -3.807   0.052  0.00  0.00    +0.028 C 
BRANCH  95  96
ATOM     96  CG  LEU A   6      10.553  -3.961  -0.107  0.00  0.00    +0.002 C 
ATOM     97  CD2 LEU A   6      11.256  -2.625   0.086  0.00  0.00    +0.000 C 
ATOM     98  CD1 LEU A   6      10.979  -4.587  -1.450  0.00  0.00    +0.000 C 
ENDBRANCH  95  96
ENDBRANCH  92  95
ENDBRANCH  89  92
ENDBRANCH  87  88
BRANCH  87  99
ATOM     99  CB  TRP A   5       3.626  -4.668  -0.958  0.00  0.00    +0.057 C 
BRANCH  99 100
ATOM    100  CG  TRP A   5       2.132  -4.838  -0.871  0.00  0.00    -0.002 A 
ATOM    101  CD1 TRP A   5       1.229  -3.931  -0.415  0.00  0.00    +0.068 A 
ATOM    102  NE1 TRP A   5      -0.043  -4.449  -0.489  0.00  0.00    -0.352 N 
ATOM    103  HE1 TRP A   5      -0.914  -3.956  -0.207  0.00  0.00    +0.166 HD
ATOM    104  CE2 TRP A   5       0.025  -5.720  -0.994  0.00  0.00    +0.056 A 
ATOM    105  CZ2 TRP A   5      -0.989  -6.645  -1.247  0.00  0.00    +0.017 A 
ATOM    106  CH2 TRP A   5      -0.622  -7.863  -1.762  0.00  0.00    +0.001 A 
ATOM    107  CZ3 TRP A   5       0.721  -8.173  -2.030  0.00  0.00    +0.000 A 
ATOM    108  CE3 TRP A   5       1.730  -7.255  -1.772  0.00  0.00    +0.001 A 
ATOM    109  CD2 TRP A   5       1.382  -6.000  -1.244  0.00  0.00    +0.013 A 
ENDBRANCH  99 100
ENDBRANCH  87  99
ENDBRANCH  85  87
ENDBRANCH  82  83
BRANCH  82 110
ATOM    110  CB  GLU A   4       3.227  -4.226   4.407  0.00  0.00    +0.041 C 
BRANCH 110 111
ATOM    111  CG  GLU A   4       3.257  -3.796   5.878  0.00  0.00    +0.116 C 
BRANCH 111 112
ATOM    112  CD  GLU A   4       1.986  -3.105   6.330  0.00  0.00    +0.365 C 
ATOM    113  OE2 GLU A   4       2.044  -2.347   7.330  0.00  0.00    -0.246 OA
ATOM    114  OE1 GLU A   4       0.934  -3.311   5.691  0.00  0.00    -0.246 OA
ENDBRANCH 111 112
ENDBRANCH 110 111
ENDBRANCH  82 110
ENDBRANCH  79  82
ENDBRANCH  77  78
BRANCH  77 115
ATOM    115  CB  VAL A   3       7.191  -0.858   4.668  0.00  0.00    +0.027 C 
ATOM    116  CG2 VAL A   3       7.989  -1.830   5.512  0.00  0.00    +0.002 C 
ATOM    117  CG1 VAL A   3       7.863   0.511   4.586  0.00  0.00    +0.002 C 
ENDBRANCH  77 115
ENDBRANCH  74  77
ENDBRANCH  61  73
ENDBRANCH  60  61
ENDBRANCH   1  60
TORSDOF 51
REMARK  Name = ../refined-set-2016/3p9m/3p9m_pocket.pdb
REMARK  326 active torsions:
REMARK  status: ('A' for Active; 'I' for Inactive)
REMARK    1  A    between atoms: _1  and  _3
REMARK    2  A    between atoms: _3  and  _4
REMARK    3  A    between atoms: _3  and  _6
REMARK    4  A    between atoms: _6  and  _7
REMARK    5  A    between atoms: _10  and  _12
REMARK    6  A    between atoms: _12  and  _13
REMARK    7  A    between atoms: _12  and  _15
REMARK    8  A    between atoms: _15  and  _16
REMARK    9  A    between atoms: _16  and  _17
REMARK   10  A    between atoms: _17  and  _18
REMARK   11  A    between atoms: _27  and  _29
REMARK   12  A    between atoms: _29  and  _30
REMARK   13  A    between atoms: _29  and  _32
REMARK   14  A    between atoms: _32  and  _33
REMARK   15  A    between atoms: _38  and  _39
REMARK   16  A    between atoms: _41  and  _43
REMARK   17  A    between atoms: _43  and  _44
REMARK   18  A    between atoms: _43  and  _46
REMARK   19  A    between atoms: _46  and  _47
REMARK   20  A    between atoms: _53  and  _55
REMARK   21  A    between atoms: _55  and  _56
REMARK   22  A    between atoms: _55  and  _58
REMARK   23  A    between atoms: _61  and  _63
REMARK   24  A    between atoms: _63  and  _64
REMARK   25  A    between atoms: _63  and  _66
REMARK   26  A    between atoms: _66  and  _67
REMARK   27  A    between atoms: _70  and  _72
REMARK   28  A    between atoms: _72  and  _73
REMARK   29  A    between atoms: _72  and  _75
REMARK   30  A    between atoms: _75  and  _76
REMARK   31  A    between atoms: _81  and  _82
REMARK   32  A    between atoms: _84  and  _86
REMARK   33  A    between atoms: _86  and  _87
REMARK   34  A    between atoms: _86  and  _89
REMARK   35  A    between atoms: _89  and  _90
REMARK   36  A    between atoms: _90  and  _91
REMARK   37  A    between atoms: _93  and  _95
REMARK   38  A    between atoms: _95  and  _96
REMARK   39  A    between atoms: _95  and  _98
REMARK   40  A    between atoms: _98  and  _99
REMARK   41  A    between atoms: _99  and  _100
REMARK   42  A    between atoms: _103  and  _105
REMARK   43  A    between atoms: _105  and  _106
REMARK   44  A    between atoms: _105  and  _108
REMARK   45  A    between atoms: _111  and  _113
REMARK   46  A    between atoms: _113  and  _114
REMARK   47  A    between atoms: _116  and  _118
REMARK   48  A    between atoms: _118  and  _119
REMARK   49  A    between atoms: _118  and  _121
REMARK   50  A    between atoms: _121  and  _122
REMARK   51  A    between atoms: _128  and  _130
REMARK   52  A    between atoms: _130  and  _131
REMARK   53  A    between atoms: _130  and  _133
REMARK   54  A    between atoms: _136  and  _138
REMARK   55  A    between atoms: _138  and  _139
REMARK   56  A    between atoms: _138  and  _141
REMARK   57  A    between atoms: _141  and  _142
REMARK   58  A    between atoms: _148  and  _150
REMARK   59  A    between atoms: _150  and  _151
REMARK   60  A    between atoms: _150  and  _153
REMARK   61  A    between atoms: _153  and  _154
REMARK   62  A    between atoms: _159  and  _160
REMARK   63  A    between atoms: _162  and  _164
REMARK   64  A    between atoms: _164  and  _165
REMARK   65  A    between atoms: _164  and  _167
REMARK   66  A    between atoms: _167  and  _168
REMARK   67  A    between atoms: _168  and  _169
REMARK   68  A    between atoms: _171  and  _173
REMARK   69  A    between atoms: _173  and  _174
REMARK   70  A    between atoms: _173  and  _176
REMARK   71  A    between atoms: _176  and  _177
REMARK   72  A    between atoms: _182  and  _183
REMARK   73  A    between atoms: _185  and  _187
REMARK   74  A    between atoms: _187  and  _188
REMARK   75  A    between atoms: _187  and  _190
REMARK   76  A    between atoms: _190  and  _191
REMARK   77  A    between atoms: _191  and  _192
REMARK   78  A    between atoms: _192  and  _193
REMARK   79  A    between atoms: _202  and  _204
REMARK   80  A    between atoms: _204  and  _205
REMARK   81  A    between atoms: _204  and  _207
REMARK   82  A    between atoms: _207  and  _208
REMARK   83  A    between atoms: _208  and  _209
REMARK   84  A    between atoms: _212  and  _214
REMARK   85  A    between atoms: _214  and  _215
REMARK   86  A    between atoms: _214  and  _217
REMARK   87  A    between atoms: _217  and  _218
REMARK   88  A    between atoms: _218  and  _219
REMARK   89  A    between atoms: _219  and  _220
REMARK   90  A    between atoms: _220  and  _221
REMARK   91  A    between atoms: _225  and  _227
REMARK   92  A    between atoms: _227  and  _228
REMARK   93  A    between atoms: _231  and  _233
REMARK   94  A    between atoms: _233  and  _234
REMARK   95  A    between atoms: _236  and  _238
REMARK   96  A    between atoms: _238  and  _239
REMARK   97  A    between atoms: _238  and  _241
REMARK   98  A    between atoms: _241  and  _242
REMARK   99  A    between atoms: _247  and  _249
REMARK  100  A    between atoms: _249  and  _250
REMARK  101  A    between atoms: _249  and  _252
REMARK  102  A    between atoms: _252  and  _253
REMARK  103  A    between atoms: _253  and  _254
REMARK  104  A    between atoms: _257  and  _259
REMARK  105  A    between atoms: _259  and  _260
REMARK  106  A    between atoms: _259  and  _262
REMARK  107  A    between atoms: _262  and  _263
REMARK  108  A    between atoms: _263  and  _264
REMARK  109  A    between atoms: _269  and  _271
REMARK  110  A    between atoms: _271  and  _272
REMARK  111  A    between atoms: _271  and  _274
REMARK  112  A    between atoms: _274  and  _275
REMARK  113  A    between atoms: _277  and  _279
REMARK  114  A    between atoms: _279  and  _280
REMARK  115  A    between atoms: _279  and  _282
REMARK  116  A    between atoms: _282  and  _283
REMARK  117  A    between atoms: _289  and  _291
REMARK  118  A    between atoms: _291  and  _292
REMARK  119  A    between atoms: _291  and  _294
REMARK  120  A    between atoms: _294  and  _295
REMARK  121  A    between atoms: _295  and  _296
REMARK  122  A    between atoms: _296  and  _297
REMARK  123  A    between atoms: _306  and  _308
REMARK  124  A    between atoms: _308  and  _309
REMARK  125  A    between atoms: _308  and  _311
REMARK  126  A    between atoms: _314  and  _316
REMARK  127  A    between atoms: _316  and  _317
REMARK  128  A    between atoms: _316  and  _319
REMARK  129  A    between atoms: _319  and  _320
REMARK  130  A    between atoms: _323  and  _325
REMARK  131  A    between atoms: _325  and  _326
REMARK  132  A    between atoms: _325  and  _328
REMARK  133  A    between atoms: _328  and  _329
REMARK  134  A    between atoms: _332  and  _334
REMARK  135  A    between atoms: _334  and  _335
REMARK  136  A    between atoms: _334  and  _337
REMARK  137  A    between atoms: _337  and  _338
REMARK  138  A    between atoms: _338  and  _339
REMARK  139  A    between atoms: _339  and  _340
REMARK  140  A    between atoms: _349  and  _351
REMARK  141  A    between atoms: _351  and  _352
REMARK  142  A    between atoms: _351  and  _354
REMARK  143  A    between atoms: _354  and  _355
REMARK  144  A    between atoms: _358  and  _360
REMARK  145  A    between atoms: _360  and  _361
REMARK  146  A    between atoms: _360  and  _363
REMARK  147  A    between atoms: _363  and  _364
REMARK  148  A    between atoms: _367  and  _369
REMARK  149  A    between atoms: _369  and  _370
REMARK  150  A    between atoms: _369  and  _372
REMARK  151  A    between atoms: _372  and  _373
REMARK  152  A    between atoms: _378  and  _379
REMARK  153  A    between atoms: _381  and  _383
REMARK  154  A    between atoms: _383  and  _384
REMARK  155  A    between atoms: _383  and  _386
REMARK  156  A    between atoms: _386  and  _387
REMARK  157  A    between atoms: _392  and  _393
REMARK  158  A    between atoms: _395  and  _397
REMARK  159  A    between atoms: _397  and  _398
REMARK  160  A    between atoms: _397  and  _400
REMARK  161  A    between atoms: _400  and  _401
REMARK  162  A    between atoms: _404  and  _406
REMARK  163  A    between atoms: _406  and  _407
REMARK  164  A    between atoms: _406  and  _409
REMARK  165  A    between atoms: _409  and  _410
REMARK  166  A    between atoms: _410  and  _411
REMARK  167  A    between atoms: _416  and  _418
REMARK  168  A    between atoms: _418  and  _419
REMARK  169  A    between atoms: _418  and  _421
REMARK  170  A    between atoms: _424  and  _426
REMARK  171  A    between atoms: _426  and  _427
REMARK  172  A    between atoms: _426  and  _429
REMARK  173  A    between atoms: _429  and  _430
REMARK  174  A    between atoms: _433  and  _435
REMARK  175  A    between atoms: _435  and  _436
REMARK  176  A    between atoms: _435  and  _438
REMARK  177  A    between atoms: _438  and  _439
REMARK  178  A    between atoms: _441  and  _443
REMARK  179  A    between atoms: _443  and  _444
REMARK  180  A    between atoms: _446  and  _448
REMARK  181  A    between atoms: _448  and  _449
REMARK  182  A    between atoms: _448  and  _451
REMARK  183  A    between atoms: _451  and  _452
REMARK  184  A    between atoms: _452  and  _753
REMARK  185  A    between atoms: _453  and  _455
REMARK  186  A    between atoms: _455  and  _456
REMARK  187  A    between atoms: _455  and  _458
REMARK  188  A    between atoms: _458  and  _459
REMARK  189  A    between atoms: _464  and  _465
REMARK  190  A    between atoms: _467  and  _469
REMARK  191  A    between atoms: _469  and  _470
REMARK  192  A    between atoms: _469  and  _472
REMARK  193  A    between atoms: _472  and  _473
REMARK  194  A    between atoms: _473  and  _474
REMARK  195  A    between atoms: _479  and  _481
REMARK  196  A    between atoms: _481  and  _482
REMARK  197  A    between atoms: _481  and  _484
REMARK  198  A    between atoms: _484  and  _485
REMARK  199  A    between atoms: _485  and  _486
REMARK  200  A    between atoms: _491  and  _493
REMARK  201  A    between atoms: _493  and  _494
REMARK  202  A    between atoms: _493  and  _496
REMARK  203  A    between atoms: _496  and  _497
REMARK  204  A    between atoms: _502  and  _503
REMARK  205  A    between atoms: _505  and  _507
REMARK  206  A    between atoms: _507  and  _508
REMARK  207  A    between atoms: _511  and  _513
REMARK  208  A    between atoms: _513  and  _514
REMARK  209  A    between atoms: _513  and  _516
REMARK  210  A    between atoms: _516  and  _517
REMARK  211  A    between atoms: _522  and  _523
REMARK  212  A    between atoms: _525  and  _527
REMARK  213  A    between atoms: _527  and  _528
REMARK  214  A    between atoms: _527  and  _530
REMARK  215  A    between atoms: _530  and  _531
REMARK  216  A    between atoms: _536  and  _537
REMARK  217  A    between atoms: _539  and  _541
REMARK  218  A    between atoms: _541  and  _542
REMARK  219  A    between atoms: _541  and  _544
REMARK  220  A    between atoms: _544  and  _545
REMARK  221  A    between atoms: _548  and  _550
REMARK  222  A    between atoms: _550  and  _551
REMARK  223  A    between atoms: _554  and  _556
REMARK  224  A    between atoms: _556  and  _557
REMARK  225  A    between atoms: _560  and  _562
REMARK  226  A    between atoms: _562  and  _563
REMARK  227  A    between atoms: _562  and  _565
REMARK  228  A    between atoms: _565  and  _566
REMARK  229  A    between atoms: _569  and  _571
REMARK  230  A    between atoms: _571  and  _572
REMARK  231  A    between atoms: _571  and  _574
REMARK  232  A    between atoms: _574  and  _575
REMARK  233  A    between atoms: _578  and  _580
REMARK  234  A    between atoms: _580  and  _581
REMARK  235  A    between atoms: _580  and  _583
REMARK  236  A    between atoms: _583  and  _584
REMARK  237  A    between atoms: _587  and  _589
REMARK  238  A    between atoms: _589  and  _590
REMARK  239  A    between atoms: _589  and  _592
REMARK  240  A    between atoms: _592  and  _593
REMARK  241  A    between atoms: _593  and  _594
REMARK  242  A    between atoms: _594  and  _595
REMARK  243  A    between atoms: _595  and  _596
REMARK  244  A    between atoms: _600  and  _602
REMARK  245  A    between atoms: _602  and  _603
REMARK  246  A    between atoms: _602  and  _605
REMARK  247  A    between atoms: _605  and  _606
REMARK  248  A    between atoms: _611  and  _613
REMARK  249  A    between atoms: _613  and  _614
REMARK  250  A    between atoms: _613  and  _616
REMARK  251  A    between atoms: _616  and  _617
REMARK  252  A    between atoms: _617  and  _618
REMARK  253  A    between atoms: _618  and  _619
REMARK  254  A    between atoms: _619  and  _620
REMARK  255  A    between atoms: _624  and  _626
REMARK  256  A    between atoms: _626  and  _627
REMARK  257  A    between atoms: _626  and  _629
REMARK  258  A    between atoms: _629  and  _630
REMARK  259  A    between atoms: _640  and  _642
REMARK  260  A    between atoms: _642  and  _643
REMARK  261  A    between atoms: _646  and  _648
REMARK  262  A    between atoms: _648  and  _649
REMARK  263  A    between atoms: _648  and  _651
REMARK  264  A    between atoms: _651  and  _652
REMARK  265  A    between atoms: _652  and  _653
REMARK  266  A    between atoms: _656  and  _658
REMARK  267  A    between atoms: _658  and  _659
REMARK  268  A    between atoms: _658  and  _661
REMARK  269  A    between atoms: _661  and  _662
REMARK  270  A    between atoms: _662  and  _663
REMARK  271  A    between atoms: _666  and  _668
REMARK  272  A    between atoms: _668  and  _669
REMARK  273  A    between atoms: _668  and  _671
REMARK  274  A    between atoms: _671  and  _672
REMARK  275  A    between atoms: _672  and  _673
REMARK  276  A    between atoms: _673  and  _674
REMARK  277  A    between atoms: _683  and  _685
REMARK  278  A    between atoms: _685  and  _686
REMARK  279  A    between atoms: _685  and  _688
REMARK  280  A    between atoms: _688  and  _689
REMARK  281  A    between atoms: _692  and  _694
REMARK  282  A    between atoms: _694  and  _695
REMARK  283  A    between atoms: _694  and  _697
REMARK  284  A    between atoms: _697  and  _698
REMARK  285  A    between atoms: _698  and  _699
REMARK  286  A    between atoms: _699  and  _700
REMARK  287  A    between atoms: _709  and  _711
REMARK  288  A    between atoms: _711  and  _712
REMARK  289  A    between atoms: _715  and  _717
REMARK  290  A    between atoms: _717  and  _718
REMARK  291  A    between atoms: _717  and  _720
REMARK  292  A    between atoms: _720  and  _721
REMARK  293  A    between atoms: _726  and  _727
REMARK  294  A    between atoms: _729  and  _731
REMARK  295  A    between atoms: _731  and  _732
REMARK  296  A    between atoms: _731  and  _734
REMARK  297  A    between atoms: _734  and  _735
REMARK  298  A    between atoms: _738  and  _740
REMARK  299  A    between atoms: _740  and  _741
REMARK  300  A    between atoms: _740  and  _743
REMARK  301  A    between atoms: _743  and  _744
REMARK  302  A    between atoms: _747  and  _749
REMARK  303  A    between atoms: _749  and  _750
REMARK  304  A    between atoms: _749  and  _752
REMARK  305  A    between atoms: _752  and  _753
REMARK  306  A    between atoms: _754  and  _756
REMARK  307  A    between atoms: _756  and  _757
REMARK  308  A    between atoms: _756  and  _759
REMARK  309  A    between atoms: _762  and  _764
REMARK  310  A    between atoms: _764  and  _765
REMARK  311  A    between atoms: _764  and  _767
REMARK  312  A    between atoms: _767  and  _768
REMARK  313  A    between atoms: _768  and  _769
REMARK  314  A    between atoms: _772  and  _774
REMARK  315  A    between atoms: _774  and  _775
REMARK  316  A    between atoms: _774  and  _777
REMARK  317  A    between atoms: _777  and  _778
REMARK  318  A    between atoms: _788  and  _790
REMARK  319  A    between atoms: _790  and  _791
REMARK  320  A    between atoms: _790  and  _793
REMARK  321  A    between atoms: _793  and  _794
REMARK  322  A    between atoms: _797  and  _799
REMARK  323  A    between atoms: _799  and  _800
REMARK  324  A    between atoms: _799  and  _802
REMARK  325  A    between atoms: _802  and  _803
REMARK  326  A    between atoms: _808  and  _809
REMARK                            x       y       z     vdW  Elec       q    Type
REMARK                         _______ _______ _______ _____ _____    ______ ____
ROOT
ATOM      1  CA  GLN A   3       7.719  12.502  -7.890  0.00  0.00    +0.149 C 
ENDROOT
BRANCH   1   4
ATOM      2  C   GLN A   2       6.723  11.762  -5.782  0.00  0.00    +0.241 C 
ATOM      3  O   GLN A   2       6.577  12.915  -5.372  0.00  0.00    -0.273 OA
ATOM      4  N   GLN A   3       7.183  11.475  -6.997  0.00  0.00    -0.297 N 
ATOM      5  H   GLN A   3       7.161  10.488  -7.323  0.00  0.00    +0.150 HD
BRANCH   2   6
ATOM      6  CA  GLN A   2       6.414  10.569  -4.880  0.00  0.00    +0.149 C 
BRANCH   6   9
ATOM      7  C   TYR A   1       7.932   9.067  -3.728  0.00  0.00    +0.239 C 
ATOM      8  O   TYR A   1       7.152   8.123  -3.796  0.00  0.00    -0.274 OA
ATOM      9  N   GLN A   2       7.601  10.297  -4.086  0.00  0.00    -0.297 N 
ATOM     10  H   GLN A   2       8.206  11.090  -3.792  0.00  0.00    +0.150 HD
BRANCH   7  11
ATOM     11  CA  TYR A   1       9.363   8.872  -3.232  0.00  0.00    +0.149 C 
BRANCH  11  12
ATOM     12  N   TYR A   1       9.385   8.041  -2.029  0.00  0.00    -0.238 NA
ATOM     13  H   TYR A   1       8.976   7.085  -2.053  0.00  0.00    +0.142 HD
ENDBRANCH  11  12
BRANCH  11  14
ATOM     14  CB  TYR A   1      10.194   8.252  -4.375  0.00  0.00    +0.053 C 
BRANCH  14  15
ATOM     15  CG  TYR A   1      11.531   7.640  -3.994  0.00  0.00    -0.020 A 
ATOM     16  CD2 TYR A   1      11.626   6.291  -3.665  0.00  0.00    -0.001 A 
ATOM     17  CE2 TYR A   1      12.844   5.714  -3.330  0.00  0.00    +0.036 A 
ATOM     18  CZ  TYR A   1      13.994   6.484  -3.329  0.00  0.00    +0.134 A 
ATOM     19  CE1 TYR A   1      13.931   7.825  -3.660  0.00  0.00    +0.036 A 
ATOM     20  CD1 TYR A   1      12.697   8.394  -4.000  0.00  0.00    -0.001 A 
BRANCH  18  21
ATOM     21  OH  TYR A   1      15.197   5.896  -2.997  0.00  0.00    -0.506 OA
ATOM     22  HH  TYR A   1      15.142   5.532  -2.078  0.00  0.00    +0.292 HD
ENDBRANCH  18  21
ENDBRANCH  14  15
ENDBRANCH  11  14
ENDBRANCH   7  11
ENDBRANCH   6   9
BRANCH   6  23
ATOM     23  CB  GLN A   2       5.200  10.846  -3.989  0.00  0.00    +0.039 C 
BRANCH  23  24
ATOM     24  CG  GLN A   2       3.910  11.161  -4.754  0.00  0.00    +0.087 C 
BRANCH  24  25
ATOM     25  CD  GLN A   2       3.164   9.922  -5.246  0.00  0.00    +0.219 C 
ATOM     26  NE2 GLN A   2       3.859   8.800  -5.323  0.00  0.00    -0.329 N 
ATOM     27 HE21 GLN A   2       4.865   8.792  -5.059  0.00  0.00    +0.145 HD
ATOM     28 HE22 GLN A   2       3.400   7.925  -5.647  0.00  0.00    +0.145 HD
ATOM     29  OE1 GLN A   2       1.967   9.983  -5.548  0.00  0.00    -0.275 OA
ENDBRANCH  24  25
ENDBRANCH  23  24
ENDBRANCH   6  23
ENDBRANCH   2   6
ENDBRANCH   1   4
BRANCH   1  30
ATOM     30  C   GLN A   3       6.906  12.557  -9.176  0.00  0.00    +0.241 C 
ATOM     31  N   TYR A   4       6.612  13.759  -9.649  0.00  0.00    -0.297 N 
ATOM     32  H   TYR A   4       6.923  14.605  -9.131  0.00  0.00    +0.150 HD
ATOM     33  O   GLN A   3       6.578  11.521  -9.757  0.00  0.00    -0.273 OA
BRANCH  31  34
ATOM     34  CA  TYR A   4       5.857  13.909 -10.887  0.00  0.00    +0.153 C 
BRANCH  34  35
ATOM     35  C   TYR A   4       6.629  14.738 -11.902  0.00  0.00    +0.241 C 
ATOM     36  O   TYR A   4       7.351  15.662 -11.545  0.00  0.00    -0.273 OA
ATOM     37  N   ALA A   5       6.436  14.422 -13.174  0.00  0.00    -0.297 N 
ATOM     38  H   ALA A   5       5.861  13.587 -13.407  0.00  0.00    +0.150 HD
BRANCH  37  39
ATOM     39  CA  ALA A   5       7.007  15.212 -14.251  0.00  0.00    +0.149 C 
ATOM     40  CB  ALA A   5       8.241  14.534 -14.806  0.00  0.00    +0.031 C 
BRANCH  39  41
ATOM     41  C   ALA A   5       5.969  15.395 -15.346  0.00  0.00    +0.241 C 
ATOM     42  O   ALA A   5       5.175  14.502 -15.605  0.00  0.00    -0.273 OA
ATOM     43  N   TYR A   6       5.970  16.566 -15.975  0.00  0.00    -0.298 N 
ATOM     44  H   TYR A   6       6.613  17.316 -15.650  0.00  0.00    +0.150 HD
BRANCH  43  45
ATOM     45  CA  TYR A   6       5.092  16.824 -17.108  0.00  0.00    +0.141 C 
BRANCH  45  46
ATOM     46  C   TYR A   6       5.968  17.143 -18.310  0.00  0.00    +0.227 C 
ATOM     47  O   TYR A   6       6.877  17.976 -18.211  0.00  0.00    -0.286 OA
ENDBRANCH  45  46
BRANCH  45  48
ATOM     48  CB  TYR A   6       4.162  17.996 -16.819  0.00  0.00    +0.054 C 
BRANCH  48  49
ATOM     49  CG  TYR A   6       3.130  18.251 -17.901  0.00  0.00    -0.020 A 
ATOM     50  CD2 TYR A   6       2.337  17.228 -18.393  0.00  0.00    -0.001 A 
ATOM     51  CE2 TYR A   6       1.379  17.474 -19.380  0.00  0.00    +0.036 A 
ATOM     52  CZ  TYR A   6       1.226  18.760 -19.874  0.00  0.00    +0.134 A 
ATOM     53  CE1 TYR A   6       2.009  19.783 -19.390  0.00  0.00    +0.036 A 
ATOM     54  CD1 TYR A   6       2.947  19.529 -18.423  0.00  0.00    -0.001 A 
BRANCH  52  55
ATOM     55  OH  TYR A   6       0.290  19.041 -20.851  0.00  0.00    -0.506 OA
ATOM     56  HH  TYR A   6      -0.191  18.210 -21.094  0.00  0.00    +0.292 HD
ENDBRANCH  52  55
ENDBRANCH  48  49
ENDBRANCH  45  48
ENDBRANCH  43  45
ENDBRANCH  39  41
ENDBRANCH  37  39
ENDBRANCH  34  35
BRANCH  34  57
ATOM     57  CB  TYR A   4       4.531  14.623 -10.628  0.00  0.00    +0.055 C 
BRANCH  57  58
ATOM     58  CG  TYR A   4       3.410  13.780 -10.074  0.00  0.00    -0.020 A 
ATOM     59  CD2 TYR A   4       3.453  13.298  -8.771  0.00  0.00    -0.001 A 
ATOM     60  CE2 TYR A   4       2.406  12.537  -8.253  0.00  0.00    +0.036 A 
ATOM     61  CZ  TYR A   4       1.295  12.282  -9.040  0.00  0.00    +0.134 A 
ATOM     62  CE1 TYR A   4       1.226  12.764 -10.330  0.00  0.00    +0.036 A 
ATOM     63  CD1 TYR A   4       2.287  13.509 -10.840  0.00  0.00    -0.001 A 
BRANCH  61  64
ATOM     64  OH  TYR A   4       0.249  11.542  -8.544  0.00  0.00    -0.506 OA
ATOM     65  HH  TYR A   4      -0.577  12.088  -8.560  0.00  0.00    +0.292 HD
ENDBRANCH  61  64
ENDBRANCH  57  58
ENDBRANCH  34  57
ENDBRANCH  31  34
ENDBRANCH   1  30
BRANCH   1  66
ATOM     66  CB  GLN A   3       9.176  12.178  -8.263  0.00  0.00    +0.039 C 
BRANCH  66  67
ATOM     67  CG  GLN A   3      10.143  12.018  -7.100  0.00  0.00    +0.087 C 
BRANCH  67  68
ATOM     68  CD  GLN A   3      11.509  11.508  -7.554  0.00  0.00    +0.219 C 
ATOM     69  OE1 GLN A   3      12.204  10.820  -6.816  0.00  0.00    -0.275 OA
ATOM     70  NE2 GLN A   3      11.894  11.852  -8.775  0.00  0.00    -0.329 N 
ATOM     71 HE21 GLN A   3      12.816  11.536  -9.138  0.00  0.00    +0.145 HD
ATOM     72 HE22 GLN A   3      11.274  12.438  -9.370  0.00  0.00    +0.145 HD
ENDBRANCH  67  68
ENDBRANCH  66  67
ENDBRANCH   1  66
TORSDOF 27
REMARK  Name = ../refined-set-2016/3p9m/3p9m_pocket.pdb
REMARK  326 active torsions:
REMARK  status: ('A' for Active; 'I' for Inactive)
REMARK    1  A    between atoms: _1  and  _3
REMARK    2  A    between atoms: _3  and  _4
REMARK    3  A    between atoms: _3  and  _6
REMARK    4  A    between atoms: _6  and  _7
REMARK    5  A    between atoms: _10  and  _12
REMARK    6  A    between atoms: _12  and  _13
REMARK    7  A    between atoms: _12  and  _15
REMARK    8  A    between atoms: _15  and  _16
REMARK    9  A    between atoms: _16  and  _17
REMARK   10  A    between atoms: _17  and  _18
REMARK   11  A    between atoms: _27  and  _29
REMARK   12  A    between atoms: _29  and  _30
REMARK   13  A    between atoms: _29  and  _32
REMARK   14  A    between atoms: _32  and  _33
REMARK   15  A    between atoms: _38  and  _39
REMARK   16  A    between atoms: _41  and  _43
REMARK   17  A    between atoms: _43  and  _44
REMARK   18  A    between atoms: _43  and  _46
REMARK   19  A    between atoms: _46  and  _47
REMARK   20  A    between atoms: _53  and  _55
REMARK   21  A    between atoms: _55  and  _56
REMARK   22  A    between atoms: _55  and  _58
REMARK   23  A    between atoms: _61  and  _63
REMARK   24  A    between atoms: _63  and  _64
REMARK   25  A    between atoms: _63  and  _66
REMARK   26  A    between atoms: _66  and  _67
REMARK   27  A    between atoms: _70  and  _72
REMARK   28  A    between atoms: _72  and  _73
REMARK   29  A    between atoms: _72  and  _75
REMARK   30  A    between atoms: _75  and  _76
REMARK   31  A    between atoms: _81  and  _82
REMARK   32  A    between atoms: _84  and  _86
REMARK   33  A    between atoms: _86  and  _87
REMARK   34  A    between atoms: _86  and  _89
REMARK   35  A    between atoms: _89  and  _90
REMARK   36  A    between atoms: _90  and  _91
REMARK   37  A    between atoms: _93  and  _95
REMARK   38  A    between atoms: _95  and  _96
REMARK   39  A    between atoms: _95  and  _98
REMARK   40  A    between atoms: _98  and  _99
REMARK   41  A    between atoms: _99  and  _100
REMARK   42  A    between atoms: _103  and  _105
REMARK   43  A    between atoms: _105  and  _106
REMARK   44  A    between atoms: _105  and  _108
REMARK   45  A    between atoms: _111  and  _113
REMARK   46  A    between atoms: _113  and  _114
REMARK   47  A    between atoms: _116  and  _118
REMARK   48  A    between atoms: _118  and  _119
REMARK   49  A    between atoms: _118  and  _121
REMARK   50  A    between atoms: _121  and  _122
REMARK   51  A    between atoms: _128  and  _130
REMARK   52  A    between atoms: _130  and  _131
REMARK   53  A    between atoms: _130  and  _133
REMARK   54  A    between atoms: _136  and  _138
REMARK   55  A    between atoms: _138  and  _139
REMARK   56  A    between atoms: _138  and  _141
REMARK   57  A    between atoms: _141  and  _142
REMARK   58  A    between atoms: _148  and  _150
REMARK   59  A    between atoms: _150  and  _151
REMARK   60  A    between atoms: _150  and  _153
REMARK   61  A    between atoms: _153  and  _154
REMARK   62  A    between atoms: _159  and  _160
REMARK   63  A    between atoms: _162  and  _164
REMARK   64  A    between atoms: _164  and  _165
REMARK   65  A    between atoms: _164  and  _167
REMARK   66  A    between atoms: _167  and  _168
REMARK   67  A    between atoms: _168  and  _169
REMARK   68  A    between atoms: _171  and  _173
REMARK   69  A    between atoms: _173  and  _174
REMARK   70  A    between atoms: _173  and  _176
REMARK   71  A    between atoms: _176  and  _177
REMARK   72  A    between atoms: _182  and  _183
REMARK   73  A    between atoms: _185  and  _187
REMARK   74  A    between atoms: _187  and  _188
REMARK   75  A    between atoms: _187  and  _190
REMARK   76  A    between atoms: _190  and  _191
REMARK   77  A    between atoms: _191  and  _192
REMARK   78  A    between atoms: _192  and  _193
REMARK   79  A    between atoms: _202  and  _204
REMARK   80  A    between atoms: _204  and  _205
REMARK   81  A    between atoms: _204  and  _207
REMARK   82  A    between atoms: _207  and  _208
REMARK   83  A    between atoms: _208  and  _209
REMARK   84  A    between atoms: _212  and  _214
REMARK   85  A    between atoms: _214  and  _215
REMARK   86  A    between atoms: _214  and  _217
REMARK   87  A    between atoms: _217  and  _218
REMARK   88  A    between atoms: _218  and  _219
REMARK   89  A    between atoms: _219  and  _220
REMARK   90  A    between atoms: _220  and  _221
REMARK   91  A    between atoms: _225  and  _227
REMARK   92  A    between atoms: _227  and  _228
REMARK   93  A    between atoms: _231  and  _233
REMARK   94  A    between atoms: _233  and  _234
REMARK   95  A    between atoms: _236  and  _238
REMARK   96  A    between atoms: _238  and  _239
REMARK   97  A    between atoms: _238  and  _241
REMARK   98  A    between atoms: _241  and  _242
REMARK   99  A    between atoms: _247  and  _249
REMARK  100  A    between atoms: _249  and  _250
REMARK  101  A    between atoms: _249  and  _252
REMARK  102  A    between atoms: _252  and  _253
REMARK  103  A    between atoms: _253  and  _254
REMARK  104  A    between atoms: _257  and  _259
REMARK  105  A    between atoms: _259  and  _260
REMARK  106  A    between atoms: _259  and  _262
REMARK  107  A    between atoms: _262  and  _263
REMARK  108  A    between atoms: _263  and  _264
REMARK  109  A    between atoms: _269  and  _271
REMARK  110  A    between atoms: _271  and  _272
REMARK  111  A    between atoms: _271  and  _274
REMARK  112  A    between atoms: _274  and  _275
REMARK  113  A    between atoms: _277  and  _279
REMARK  114  A    between atoms: _279  and  _280
REMARK  115  A    between atoms: _279  and  _282
REMARK  116  A    between atoms: _282  and  _283
REMARK  117  A    between atoms: _289  and  _291
REMARK  118  A    between atoms: _291  and  _292
REMARK  119  A    between atoms: _291  and  _294
REMARK  120  A    between atoms: _294  and  _295
REMARK  121  A    between atoms: _295  and  _296
REMARK  122  A    between atoms: _296  and  _297
REMARK  123  A    between atoms: _306  and  _308
REMARK  124  A    between atoms: _308  and  _309
REMARK  125  A    between atoms: _308  and  _311
REMARK  126  A    between atoms: _314  and  _316
REMARK  127  A    between atoms: _316  and  _317
REMARK  128  A    between atoms: _316  and  _319
REMARK  129  A    between atoms: _319  and  _320
REMARK  130  A    between atoms: _323  and  _325
REMARK  131  A    between atoms: _325  and  _326
REMARK  132  A    between atoms: _325  and  _328
REMARK  133  A    between atoms: _328  and  _329
REMARK  134  A    between atoms: _332  and  _334
REMARK  135  A    between atoms: _334  and  _335
REMARK  136  A    between atoms: _334  and  _337
REMARK  137  A    between atoms: _337  and  _338
REMARK  138  A    between atoms: _338  and  _339
REMARK  139  A    between atoms: _339  and  _340
REMARK  140  A    between atoms: _349  and  _351
REMARK  141  A    between atoms: _351  and  _352
REMARK  142  A    between atoms: _351  and  _354
REMARK  143  A    between atoms: _354  and  _355
REMARK  144  A    between atoms: _358  and  _360
REMARK  145  A    between atoms: _360  and  _361
REMARK  146  A    between atoms: _360  and  _363
REMARK  147  A    between atoms: _363  and  _364
REMARK  148  A    between atoms: _367  and  _369
REMARK  149  A    between atoms: _369  and  _370
REMARK  150  A    between atoms: _369  and  _372
REMARK  151  A    between atoms: _372  and  _373
REMARK  152  A    between atoms: _378  and  _379
REMARK  153  A    between atoms: _381  and  _383
REMARK  154  A    between atoms: _383  and  _384
REMARK  155  A    between atoms: _383  and  _386
REMARK  156  A    between atoms: _386  and  _387
REMARK  157  A    between atoms: _392  and  _393
REMARK  158  A    between atoms: _395  and  _397
REMARK  159  A    between atoms: _397  and  _398
REMARK  160  A    between atoms: _397  and  _400
REMARK  161  A    between atoms: _400  and  _401
REMARK  162  A    between atoms: _404  and  _406
REMARK  163  A    between atoms: _406  and  _407
REMARK  164  A    between atoms: _406  and  _409
REMARK  165  A    between atoms: _409  and  _410
REMARK  166  A    between atoms: _410  and  _411
REMARK  167  A    between atoms: _416  and  _418
REMARK  168  A    between atoms: _418  and  _419
REMARK  169  A    between atoms: _418  and  _421
REMARK  170  A    between atoms: _424  and  _426
REMARK  171  A    between atoms: _426  and  _427
REMARK  172  A    between atoms: _426  and  _429
REMARK  173  A    between atoms: _429  and  _430
REMARK  174  A    between atoms: _433  and  _435
REMARK  175  A    between atoms: _435  and  _436
REMARK  176  A    between atoms: _435  and  _438
REMARK  177  A    between atoms: _438  and  _439
REMARK  178  A    between atoms: _441  and  _443
REMARK  179  A    between atoms: _443  and  _444
REMARK  180  A    between atoms: _446  and  _448
REMARK  181  A    between atoms: _448  and  _449
REMARK  182  A    between atoms: _448  and  _451
REMARK  183  A    between atoms: _451  and  _452
REMARK  184  A    between atoms: _452  and  _753
REMARK  185  A    between atoms: _453  and  _455
REMARK  186  A    between atoms: _455  and  _456
REMARK  187  A    between atoms: _455  and  _458
REMARK  188  A    between atoms: _458  and  _459
REMARK  189  A    between atoms: _464  and  _465
REMARK  190  A    between atoms: _467  and  _469
REMARK  191  A    between atoms: _469  and  _470
REMARK  192  A    between atoms: _469  and  _472
REMARK  193  A    between atoms: _472  and  _473
REMARK  194  A    between atoms: _473  and  _474
REMARK  195  A    between atoms: _479  and  _481
REMARK  196  A    between atoms: _481  and  _482
REMARK  197  A    between atoms: _481  and  _484
REMARK  198  A    between atoms: _484  and  _485
REMARK  199  A    between atoms: _485  and  _486
REMARK  200  A    between atoms: _491  and  _493
REMARK  201  A    between atoms: _493  and  _494
REMARK  202  A    between atoms: _493  and  _496
REMARK  203  A    between atoms: _496  and  _497
REMARK  204  A    between atoms: _502  and  _503
REMARK  205  A    between atoms: _505  and  _507
REMARK  206  A    between atoms: _507  and  _508
REMARK  207  A    between atoms: _511  and  _513
REMARK  208  A    between atoms: _513  and  _514
REMARK  209  A    between atoms: _513  and  _516
REMARK  210  A    between atoms: _516  and  _517
REMARK  211  A    between atoms: _522  and  _523
REMARK  212  A    between atoms: _525  and  _527
REMARK  213  A    between atoms: _527  and  _528
REMARK  214  A    between atoms: _527  and  _530
REMARK  215  A    between atoms: _530  and  _531
REMARK  216  A    between atoms: _536  and  _537
REMARK  217  A    between atoms: _539  and  _541
REMARK  218  A    between atoms: _541  and  _542
REMARK  219  A    between atoms: _541  and  _544
REMARK  220  A    between atoms: _544  and  _545
REMARK  221  A    between atoms: _548  and  _550
REMARK  222  A    between atoms: _550  and  _551
REMARK  223  A    between atoms: _554  and  _556
REMARK  224  A    between atoms: _556  and  _557
REMARK  225  A    between atoms: _560  and  _562
REMARK  226  A    between atoms: _562  and  _563
REMARK  227  A    between atoms: _562  and  _565
REMARK  228  A    between atoms: _565  and  _566
REMARK  229  A    between atoms: _569  and  _571
REMARK  230  A    between atoms: _571  and  _572
REMARK  231  A    between atoms: _571  and  _574
REMARK  232  A    between atoms: _574  and  _575
REMARK  233  A    between atoms: _578  and  _580
REMARK  234  A    between atoms: _580  and  _581
REMARK  235  A    between atoms: _580  and  _583
REMARK  236  A    between atoms: _583  and  _584
REMARK  237  A    between atoms: _587  and  _589
REMARK  238  A    between atoms: _589  and  _590
REMARK  239  A    between atoms: _589  and  _592
REMARK  240  A    between atoms: _592  and  _593
REMARK  241  A    between atoms: _593  and  _594
REMARK  242  A    between atoms: _594  and  _595
REMARK  243  A    between atoms: _595  and  _596
REMARK  244  A    between atoms: _600  and  _602
REMARK  245  A    between atoms: _602  and  _603
REMARK  246  A    between atoms: _602  and  _605
REMARK  247  A    between atoms: _605  and  _606
REMARK  248  A    between atoms: _611  and  _613
REMARK  249  A    between atoms: _613  and  _614
REMARK  250  A    between atoms: _613  and  _616
REMARK  251  A    between atoms: _616  and  _617
REMARK  252  A    between atoms: _617  and  _618
REMARK  253  A    between atoms: _618  and  _619
REMARK  254  A    between atoms: _619  and  _620
REMARK  255  A    between atoms: _624  and  _626
REMARK  256  A    between atoms: _626  and  _627
REMARK  257  A    between atoms: _626  and  _629
REMARK  258  A    between atoms: _629  and  _630
REMARK  259  A    between atoms: _640  and  _642
REMARK  260  A    between atoms: _642  and  _643
REMARK  261  A    between atoms: _646  and  _648
REMARK  262  A    between atoms: _648  and  _649
REMARK  263  A    between atoms: _648  and  _651
REMARK  264  A    between atoms: _651  and  _652
REMARK  265  A    between atoms: _652  and  _653
REMARK  266  A    between atoms: _656  and  _658
REMARK  267  A    between atoms: _658  and  _659
REMARK  268  A    between atoms: _658  and  _661
REMARK  269  A    between atoms: _661  and  _662
REMARK  270  A    between atoms: _662  and  _663
REMARK  271  A    between atoms: _666  and  _668
REMARK  272  A    between atoms: _668  and  _669
REMARK  273  A    between atoms: _668  and  _671
REMARK  274  A    between atoms: _671  and  _672
REMARK  275  A    between atoms: _672  and  _673
REMARK  276  A    between atoms: _673  and  _674
REMARK  277  A    between atoms: _683  and  _685
REMARK  278  A    between atoms: _685  and  _686
REMARK  279  A    between atoms: _685  and  _688
REMARK  280  A    between atoms: _688  and  _689
REMARK  281  A    between atoms: _692  and  _694
REMARK  282  A    between atoms: _694  and  _695
REMARK  283  A    between atoms: _694  and  _697
REMARK  284  A    between atoms: _697  and  _698
REMARK  285  A    between atoms: _698  and  _699
REMARK  286  A    between atoms: _699  and  _700
REMARK  287  A    between atoms: _709  and  _711
REMARK  288  A    between atoms: _711  and  _712
REMARK  289  A    between atoms: _715  and  _717
REMARK  290  A    between atoms: _717  and  _718
REMARK  291  A    between atoms: _717  and  _720
REMARK  292  A    between atoms: _720  and  _721
REMARK  293  A    between atoms: _726  and  _727
REMARK  294  A    between atoms: _729  and  _731
REMARK  295  A    between atoms: _731  and  _732
REMARK  296  A    between atoms: _731  and  _734
REMARK  297  A    between atoms: _734  and  _735
REMARK  298  A    between atoms: _738  and  _740
REMARK  299  A    between atoms: _740  and  _741
REMARK  300  A    between atoms: _740  and  _743
REMARK  301  A    between atoms: _743  and  _744
REMARK  302  A    between atoms: _747  and  _749
REMARK  303  A    between atoms: _749  and  _750
REMARK  304  A    between atoms: _749  and  _752
REMARK  305  A    between atoms: _752  and  _753
REMARK  306  A    between atoms: _754  and  _756
REMARK  307  A    between atoms: _756  and  _757
REMARK  308  A    between atoms: _756  and  _759
REMARK  309  A    between atoms: _762  and  _764
REMARK  310  A    between atoms: _764  and  _765
REMARK  311  A    between atoms: _764  and  _767
REMARK  312  A    between atoms: _767  and  _768
REMARK  313  A    between atoms: _768  and  _769
REMARK  314  A    between atoms: _772  and  _774
REMARK  315  A    between atoms: _774  and  _775
REMARK  316  A    between atoms: _774  and  _777
REMARK  317  A    between atoms: _777  and  _778
REMARK  318  A    between atoms: _788  and  _790
REMARK  319  A    between atoms: _790  and  _791
REMARK  320  A    between atoms: _790  and  _793
REMARK  321  A    between atoms: _793  and  _794
REMARK  322  A    between atoms: _797  and  _799
REMARK  323  A    between atoms: _799  and  _800
REMARK  324  A    between atoms: _799  and  _802
REMARK  325  A    between atoms: _802  and  _803
REMARK  326  A    between atoms: _808  and  _809
REMARK                            x       y       z     vdW  Elec       q    Type
REMARK                         _______ _______ _______ _____ _____    ______ ____
ROOT
ATOM      1  CA  TYR A   1       6.379  19.087 -11.894  0.00  0.00    +0.149 C 
ENDROOT
BRANCH   1   2
ATOM      2  C   TYR A   1       6.190  19.303 -10.389  0.00  0.00    +0.239 C 
ATOM      3  N   ILE A   2       6.020  18.211  -9.648  0.00  0.00    -0.298 N 
ATOM      4  H   ILE A   2       5.975  17.282 -10.112  0.00  0.00    +0.150 HD
ATOM      5  O   TYR A   1       6.241  20.440  -9.901  0.00  0.00    -0.274 OA
BRANCH   3   6
ATOM      6  CA  ILE A   2       5.896  18.292  -8.203  0.00  0.00    +0.137 C 
BRANCH   6   7
ATOM      7  C   ILE A   2       6.529  17.072  -7.525  0.00  0.00    +0.227 C 
ATOM      8  O   ILE A   2       6.643  15.997  -8.115  0.00  0.00    -0.286 OA
ENDBRANCH   6   7
BRANCH   6   9
ATOM      9  CB  ILE A   2       4.419  18.472  -7.774  0.00  0.00    +0.026 C 
ATOM     10  CG2 ILE A   2       3.644  17.166  -7.911  0.00  0.00    +0.002 C 
BRANCH   9  11
ATOM     11  CG1 ILE A   2       4.317  19.030  -6.348  0.00  0.00    +0.002 C 
ATOM     12  CD1 ILE A   2       2.884  19.430  -5.944  0.00  0.00    +0.000 C 
ENDBRANCH   9  11
ENDBRANCH   6   9
ENDBRANCH   3   6
ENDBRANCH   1   2
BRANCH   1  13
ATOM     13  N   TYR A   1       7.633  18.395 -12.135  0.00  0.00    -0.238 NA
ATOM     14  H   TYR A   1       7.752  17.424 -11.783  0.00  0.00    +0.142 HD
ENDBRANCH   1  13
BRANCH   1  15
ATOM     15  CB  TYR A   1       5.214  18.308 -12.525  0.00  0.00    +0.053 C 
BRANCH  15  16
ATOM     16  CG  TYR A   1       3.871  18.979 -12.393  0.00  0.00    -0.020 A 
ATOM     17  CD2 TYR A   1       2.972  18.584 -11.409  0.00  0.00    -0.001 A 
ATOM     18  CE2 TYR A   1       1.741  19.202 -11.269  0.00  0.00    +0.036 A 
ATOM     19  CZ  TYR A   1       1.384  20.217 -12.119  0.00  0.00    +0.134 A 
ATOM     20  CE1 TYR A   1       2.257  20.631 -13.118  0.00  0.00    +0.036 A 
ATOM     21  CD1 TYR A   1       3.494  20.006 -13.250  0.00  0.00    -0.001 A 
BRANCH  19  22
ATOM     22  OH  TYR A   1       0.151  20.816 -11.971  0.00  0.00    -0.506 OA
ATOM     23  HH  TYR A   1       0.086  21.216 -11.068  0.00  0.00    +0.292 HD
ENDBRANCH  19  22
ENDBRANCH  15  16
ENDBRANCH   1  15
TORSDOF 9
REMARK  Name = ../refined-set-2016/3p9m/3p9m_pocket.pdb
REMARK  326 active torsions:
REMARK  status: ('A' for Active; 'I' for Inactive)
REMARK    1  A    between atoms: _1  and  _3
REMARK    2  A    between atoms: _3  and  _4
REMARK    3  A    between atoms: _3  and  _6
REMARK    4  A    between atoms: _6  and  _7
REMARK    5  A    between atoms: _10  and  _12
REMARK    6  A    between atoms: _12  and  _13
REMARK    7  A    between atoms: _12  and  _15
REMARK    8  A    between atoms: _15  and  _16
REMARK    9  A    between atoms: _16  and  _17
REMARK   10  A    between atoms: _17  and  _18
REMARK   11  A    between atoms: _27  and  _29
REMARK   12  A    between atoms: _29  and  _30
REMARK   13  A    between atoms: _29  and  _32
REMARK   14  A    between atoms: _32  and  _33
REMARK   15  A    between atoms: _38  and  _39
REMARK   16  A    between atoms: _41  and  _43
REMARK   17  A    between atoms: _43  and  _44
REMARK   18  A    between atoms: _43  and  _46
REMARK   19  A    between atoms: _46  and  _47
REMARK   20  A    between atoms: _53  and  _55
REMARK   21  A    between atoms: _55  and  _56
REMARK   22  A    between atoms: _55  and  _58
REMARK   23  A    between atoms: _61  and  _63
REMARK   24  A    between atoms: _63  and  _64
REMARK   25  A    between atoms: _63  and  _66
REMARK   26  A    between atoms: _66  and  _67
REMARK   27  A    between atoms: _70  and  _72
REMARK   28  A    between atoms: _72  and  _73
REMARK   29  A    between atoms: _72  and  _75
REMARK   30  A    between atoms: _75  and  _76
REMARK   31  A    between atoms: _81  and  _82
REMARK   32  A    between atoms: _84  and  _86
REMARK   33  A    between atoms: _86  and  _87
REMARK   34  A    between atoms: _86  and  _89
REMARK   35  A    between atoms: _89  and  _90
REMARK   36  A    between atoms: _90  and  _91
REMARK   37  A    between atoms: _93  and  _95
REMARK   38  A    between atoms: _95  and  _96
REMARK   39  A    between atoms: _95  and  _98
REMARK   40  A    between atoms: _98  and  _99
REMARK   41  A    between atoms: _99  and  _100
REMARK   42  A    between atoms: _103  and  _105
REMARK   43  A    between atoms: _105  and  _106
REMARK   44  A    between atoms: _105  and  _108
REMARK   45  A    between atoms: _111  and  _113
REMARK   46  A    between atoms: _113  and  _114
REMARK   47  A    between atoms: _116  and  _118
REMARK   48  A    between atoms: _118  and  _119
REMARK   49  A    between atoms: _118  and  _121
REMARK   50  A    between atoms: _121  and  _122
REMARK   51  A    between atoms: _128  and  _130
REMARK   52  A    between atoms: _130  and  _131
REMARK   53  A    between atoms: _130  and  _133
REMARK   54  A    between atoms: _136  and  _138
REMARK   55  A    between atoms: _138  and  _139
REMARK   56  A    between atoms: _138  and  _141
REMARK   57  A    between atoms: _141  and  _142
REMARK   58  A    between atoms: _148  and  _150
REMARK   59  A    between atoms: _150  and  _151
REMARK   60  A    between atoms: _150  and  _153
REMARK   61  A    between atoms: _153  and  _154
REMARK   62  A    between atoms: _159  and  _160
REMARK   63  A    between atoms: _162  and  _164
REMARK   64  A    between atoms: _164  and  _165
REMARK   65  A    between atoms: _164  and  _167
REMARK   66  A    between atoms: _167  and  _168
REMARK   67  A    between atoms: _168  and  _169
REMARK   68  A    between atoms: _171  and  _173
REMARK   69  A    between atoms: _173  and  _174
REMARK   70  A    between atoms: _173  and  _176
REMARK   71  A    between atoms: _176  and  _177
REMARK   72  A    between atoms: _182  and  _183
REMARK   73  A    between atoms: _185  and  _187
REMARK   74  A    between atoms: _187  and  _188
REMARK   75  A    between atoms: _187  and  _190
REMARK   76  A    between atoms: _190  and  _191
REMARK   77  A    between atoms: _191  and  _192
REMARK   78  A    between atoms: _192  and  _193
REMARK   79  A    between atoms: _202  and  _204
REMARK   80  A    between atoms: _204  and  _205
REMARK   81  A    between atoms: _204  and  _207
REMARK   82  A    between atoms: _207  and  _208
REMARK   83  A    between atoms: _208  and  _209
REMARK   84  A    between atoms: _212  and  _214
REMARK   85  A    between atoms: _214  and  _215
REMARK   86  A    between atoms: _214  and  _217
REMARK   87  A    between atoms: _217  and  _218
REMARK   88  A    between atoms: _218  and  _219
REMARK   89  A    between atoms: _219  and  _220
REMARK   90  A    between atoms: _220  and  _221
REMARK   91  A    between atoms: _225  and  _227
REMARK   92  A    between atoms: _227  and  _228
REMARK   93  A    between atoms: _231  and  _233
REMARK   94  A    between atoms: _233  and  _234
REMARK   95  A    between atoms: _236  and  _238
REMARK   96  A    between atoms: _238  and  _239
REMARK   97  A    between atoms: _238  and  _241
REMARK   98  A    between atoms: _241  and  _242
REMARK   99  A    between atoms: _247  and  _249
REMARK  100  A    between atoms: _249  and  _250
REMARK  101  A    between atoms: _249  and  _252
REMARK  102  A    between atoms: _252  and  _253
REMARK  103  A    between atoms: _253  and  _254
REMARK  104  A    between atoms: _257  and  _259
REMARK  105  A    between atoms: _259  and  _260
REMARK  106  A    between atoms: _259  and  _262
REMARK  107  A    between atoms: _262  and  _263
REMARK  108  A    between atoms: _263  and  _264
REMARK  109  A    between atoms: _269  and  _271
REMARK  110  A    between atoms: _271  and  _272
REMARK  111  A    between atoms: _271  and  _274
REMARK  112  A    between atoms: _274  and  _275
REMARK  113  A    between atoms: _277  and  _279
REMARK  114  A    between atoms: _279  and  _280
REMARK  115  A    between atoms: _279  and  _282
REMARK  116  A    between atoms: _282  and  _283
REMARK  117  A    between atoms: _289  and  _291
REMARK  118  A    between atoms: _291  and  _292
REMARK  119  A    between atoms: _291  and  _294
REMARK  120  A    between atoms: _294  and  _295
REMARK  121  A    between atoms: _295  and  _296
REMARK  122  A    between atoms: _296  and  _297
REMARK  123  A    between atoms: _306  and  _308
REMARK  124  A    between atoms: _308  and  _309
REMARK  125  A    between atoms: _308  and  _311
REMARK  126  A    between atoms: _314  and  _316
REMARK  127  A    between atoms: _316  and  _317
REMARK  128  A    between atoms: _316  and  _319
REMARK  129  A    between atoms: _319  and  _320
REMARK  130  A    between atoms: _323  and  _325
REMARK  131  A    between atoms: _325  and  _326
REMARK  132  A    between atoms: _325  and  _328
REMARK  133  A    between atoms: _328  and  _329
REMARK  134  A    between atoms: _332  and  _334
REMARK  135  A    between atoms: _334  and  _335
REMARK  136  A    between atoms: _334  and  _337
REMARK  137  A    between atoms: _337  and  _338
REMARK  138  A    between atoms: _338  and  _339
REMARK  139  A    between atoms: _339  and  _340
REMARK  140  A    between atoms: _349  and  _351
REMARK  141  A    between atoms: _351  and  _352
REMARK  142  A    between atoms: _351  and  _354
REMARK  143  A    between atoms: _354  and  _355
REMARK  144  A    between atoms: _358  and  _360
REMARK  145  A    between atoms: _360  and  _361
REMARK  146  A    between atoms: _360  and  _363
REMARK  147  A    between atoms: _363  and  _364
REMARK  148  A    between atoms: _367  and  _369
REMARK  149  A    between atoms: _369  and  _370
REMARK  150  A    between atoms: _369  and  _372
REMARK  151  A    between atoms: _372  and  _373
REMARK  152  A    between atoms: _378  and  _379
REMARK  153  A    between atoms: _381  and  _383
REMARK  154  A    between atoms: _383  and  _384
REMARK  155  A    between atoms: _383  and  _386
REMARK  156  A    between atoms: _386  and  _387
REMARK  157  A    between atoms: _392  and  _393
REMARK  158  A    between atoms: _395  and  _397
REMARK  159  A    between atoms: _397  and  _398
REMARK  160  A    between atoms: _397  and  _400
REMARK  161  A    between atoms: _400  and  _401
REMARK  162  A    between atoms: _404  and  _406
REMARK  163  A    between atoms: _406  and  _407
REMARK  164  A    between atoms: _406  and  _409
REMARK  165  A    between atoms: _409  and  _410
REMARK  166  A    between atoms: _410  and  _411
REMARK  167  A    between atoms: _416  and  _418
REMARK  168  A    between atoms: _418  and  _419
REMARK  169  A    between atoms: _418  and  _421
REMARK  170  A    between atoms: _424  and  _426
REMARK  171  A    between atoms: _426  and  _427
REMARK  172  A    between atoms: _426  and  _429
REMARK  173  A    between atoms: _429  and  _430
REMARK  174  A    between atoms: _433  and  _435
REMARK  175  A    between atoms: _435  and  _436
REMARK  176  A    between atoms: _435  and  _438
REMARK  177  A    between atoms: _438  and  _439
REMARK  178  A    between atoms: _441  and  _443
REMARK  179  A    between atoms: _443  and  _444
REMARK  180  A    between atoms: _446  and  _448
REMARK  181  A    between atoms: _448  and  _449
REMARK  182  A    between atoms: _448  and  _451
REMARK  183  A    between atoms: _451  and  _452
REMARK  184  A    between atoms: _452  and  _753
REMARK  185  A    between atoms: _453  and  _455
REMARK  186  A    between atoms: _455  and  _456
REMARK  187  A    between atoms: _455  and  _458
REMARK  188  A    between atoms: _458  and  _459
REMARK  189  A    between atoms: _464  and  _465
REMARK  190  A    between atoms: _467  and  _469
REMARK  191  A    between atoms: _469  and  _470
REMARK  192  A    between atoms: _469  and  _472
REMARK  193  A    between atoms: _472  and  _473
REMARK  194  A    between atoms: _473  and  _474
REMARK  195  A    between atoms: _479  and  _481
REMARK  196  A    between atoms: _481  and  _482
REMARK  197  A    between atoms: _481  and  _484
REMARK  198  A    between atoms: _484  and  _485
REMARK  199  A    between atoms: _485  and  _486
REMARK  200  A    between atoms: _491  and  _493
REMARK  201  A    between atoms: _493  and  _494
REMARK  202  A    between atoms: _493  and  _496
REMARK  203  A    between atoms: _496  and  _497
REMARK  204  A    between atoms: _502  and  _503
REMARK  205  A    between atoms: _505  and  _507
REMARK  206  A    between atoms: _507  and  _508
REMARK  207  A    between atoms: _511  and  _513
REMARK  208  A    between atoms: _513  and  _514
REMARK  209  A    between atoms: _513  and  _516
REMARK  210  A    between atoms: _516  and  _517
REMARK  211  A    between atoms: _522  and  _523
REMARK  212  A    between atoms: _525  and  _527
REMARK  213  A    between atoms: _527  and  _528
REMARK  214  A    between atoms: _527  and  _530
REMARK  215  A    between atoms: _530  and  _531
REMARK  216  A    between atoms: _536  and  _537
REMARK  217  A    between atoms: _539  and  _541
REMARK  218  A    between atoms: _541  and  _542
REMARK  219  A    between atoms: _541  and  _544
REMARK  220  A    between atoms: _544  and  _545
REMARK  221  A    between atoms: _548  and  _550
REMARK  222  A    between atoms: _550  and  _551
REMARK  223  A    between atoms: _554  and  _556
REMARK  224  A    between atoms: _556  and  _557
REMARK  225  A    between atoms: _560  and  _562
REMARK  226  A    between atoms: _562  and  _563
REMARK  227  A    between atoms: _562  and  _565
REMARK  228  A    between atoms: _565  and  _566
REMARK  229  A    between atoms: _569  and  _571
REMARK  230  A    between atoms: _571  and  _572
REMARK  231  A    between atoms: _571  and  _574
REMARK  232  A    between atoms: _574  and  _575
REMARK  233  A    between atoms: _578  and  _580
REMARK  234  A    between atoms: _580  and  _581
REMARK  235  A    between atoms: _580  and  _583
REMARK  236  A    between atoms: _583  and  _584
REMARK  237  A    between atoms: _587  and  _589
REMARK  238  A    between atoms: _589  and  _590
REMARK  239  A    between atoms: _589  and  _592
REMARK  240  A    between atoms: _592  and  _593
REMARK  241  A    between atoms: _593  and  _594
REMARK  242  A    between atoms: _594  and  _595
REMARK  243  A    between atoms: _595  and  _596
REMARK  244  A    between atoms: _600  and  _602
REMARK  245  A    between atoms: _602  and  _603
REMARK  246  A    between atoms: _602  and  _605
REMARK  247  A    between atoms: _605  and  _606
REMARK  248  A    between atoms: _611  and  _613
REMARK  249  A    between atoms: _613  and  _614
REMARK  250  A    between atoms: _613  and  _616
REMARK  251  A    between atoms: _616  and  _617
REMARK  252  A    between atoms: _617  and  _618
REMARK  253  A    between atoms: _618  and  _619
REMARK  254  A    between atoms: _619  and  _620
REMARK  255  A    between atoms: _624  and  _626
REMARK  256  A    between atoms: _626  and  _627
REMARK  257  A    between atoms: _626  and  _629
REMARK  258  A    between atoms: _629  and  _630
REMARK  259  A    between atoms: _640  and  _642
REMARK  260  A    between atoms: _642  and  _643
REMARK  261  A    between atoms: _646  and  _648
REMARK  262  A    between atoms: _648  and  _649
REMARK  263  A    between atoms: _648  and  _651
REMARK  264  A    between atoms: _651  and  _652
REMARK  265  A    between atoms: _652  and  _653
REMARK  266  A    between atoms: _656  and  _658
REMARK  267  A    between atoms: _658  and  _659
REMARK  268  A    between atoms: _658  and  _661
REMARK  269  A    between atoms: _661  and  _662
REMARK  270  A    between atoms: _662  and  _663
REMARK  271  A    between atoms: _666  and  _668
REMARK  272  A    between atoms: _668  and  _669
REMARK  273  A    between atoms: _668  and  _671
REMARK  274  A    between atoms: _671  and  _672
REMARK  275  A    between atoms: _672  and  _673
REMARK  276  A    between atoms: _673  and  _674
REMARK  277  A    between atoms: _683  and  _685
REMARK  278  A    between atoms: _685  and  _686
REMARK  279  A    between atoms: _685  and  _688
REMARK  280  A    between atoms: _688  and  _689
REMARK  281  A    between atoms: _692  and  _694
REMARK  282  A    between atoms: _694  and  _695
REMARK  283  A    between atoms: _694  and  _697
REMARK  284  A    between atoms: _697  and  _698
REMARK  285  A    between atoms: _698  and  _699
REMARK  286  A    between atoms: _699  and  _700
REMARK  287  A    between atoms: _709  and  _711
REMARK  288  A    between atoms: _711  and  _712
REMARK  289  A    between atoms: _715  and  _717
REMARK  290  A    between atoms: _717  and  _718
REMARK  291  A    between atoms: _717  and  _720
REMARK  292  A    between atoms: _720  and  _721
REMARK  293  A    between atoms: _726  and  _727
REMARK  294  A    between atoms: _729  and  _731
REMARK  295  A    between atoms: _731  and  _732
REMARK  296  A    between atoms: _731  and  _734
REMARK  297  A    between atoms: _734  and  _735
REMARK  298  A    between atoms: _738  and  _740
REMARK  299  A    between atoms: _740  and  _741
REMARK  300  A    between atoms: _740  and  _743
REMARK  301  A    between atoms: _743  and  _744
REMARK  302  A    between atoms: _747  and  _749
REMARK  303  A    between atoms: _749  and  _750
REMARK  304  A    between atoms: _749  and  _752
REMARK  305  A    between atoms: _752  and  _753
REMARK  306  A    between atoms: _754  and  _756
REMARK  307  A    between atoms: _756  and  _757
REMARK  308  A    between atoms: _756  and  _759
REMARK  309  A    between atoms: _762  and  _764
REMARK  310  A    between atoms: _764  and  _765
REMARK  311  A    between atoms: _764  and  _767
REMARK  312  A    between atoms: _767  and  _768
REMARK  313  A    between atoms: _768  and  _769
REMARK  314  A    between atoms: _772  and  _774
REMARK  315  A    between atoms: _774  and  _775
REMARK  316  A    between atoms: _774  and  _777
REMARK  317  A    between atoms: _777  and  _778
REMARK  318  A    between atoms: _788  and  _790
REMARK  319  A    between atoms: _790  and  _791
REMARK  320  A    between atoms: _790  and  _793
REMARK  321  A    between atoms: _793  and  _794
REMARK  322  A    between atoms: _797  and  _799
REMARK  323  A    between atoms: _799  and  _800
REMARK  324  A    between atoms: _799  and  _802
REMARK  325  A    between atoms: _802  and  _803
REMARK  326  A    between atoms: _808  and  _809
REMARK                            x       y       z     vdW  Elec       q    Type
REMARK                         _______ _______ _______ _____ _____    ______ ____
ROOT
ATOM      1  CA  LYS A   6       0.357  21.913  -4.444  0.00  0.00    +0.149 C 
ENDROOT
BRANCH   1   4
ATOM      2  C   THR A   5      -1.275  21.150  -6.044  0.00  0.00    +0.243 C 
ATOM      3  O   THR A   5      -1.848  20.484  -5.181  0.00  0.00    -0.273 OA
ATOM      4  N   LYS A   6      -0.219  21.907  -5.781  0.00  0.00    -0.297 N 
ATOM      5  H   LYS A   6       0.198  22.496  -6.530  0.00  0.00    +0.150 HD
BRANCH   2   6
ATOM      6  CA  THR A   5      -1.762  21.148  -7.482  0.00  0.00    +0.176 C 
BRANCH   6   9
ATOM      7  C   ILE A   4      -2.348  23.515  -7.440  0.00  0.00    +0.241 C 
ATOM      8  O   ILE A   4      -3.034  23.383  -6.424  0.00  0.00    -0.273 OA
ATOM      9  N   THR A   5      -1.729  22.500  -8.037  0.00  0.00    -0.295 N 
ATOM     10  H   THR A   5      -1.209  22.673  -8.921  0.00  0.00    +0.150 HD
BRANCH   7  11
ATOM     11  CA  ILE A   4      -2.149  24.886  -8.073  0.00  0.00    +0.149 C 
BRANCH  11  14
ATOM     12  C   LEU A   3       0.030  25.265  -7.083  0.00  0.00    +0.241 C 
ATOM     13  O   LEU A   3      -0.431  25.197  -5.939  0.00  0.00    -0.273 OA
ATOM     14  N   ILE A   4      -0.724  25.161  -8.171  0.00  0.00    -0.297 N 
ATOM     15  H   ILE A   4      -0.289  25.278  -9.108  0.00  0.00    +0.150 HD
BRANCH  12  16
ATOM     16  CA  LEU A   3       1.523  25.491  -7.313  0.00  0.00    +0.149 C 
BRANCH  16  19
ATOM     17  C   ALA A   2       1.917  23.463  -8.617  0.00  0.00    +0.241 C 
ATOM     18  O   ALA A   2       1.543  22.734  -7.695  0.00  0.00    -0.273 OA
ATOM     19  N   LEU A   3       1.989  24.792  -8.510  0.00  0.00    -0.297 N 
ATOM     20  H   LEU A   3       2.386  25.344  -9.297  0.00  0.00    +0.150 HD
BRANCH  17  21
ATOM     21  CA  ALA A   2       2.331  22.856  -9.954  0.00  0.00    +0.149 C 
ATOM     22  CB  ALA A   2       3.740  22.311  -9.880  0.00  0.00    +0.031 C 
BRANCH  21  25
ATOM     23  C   ALA A   1       1.003  24.279 -11.414  0.00  0.00    +0.238 C 
ATOM     24  O   ALA A   1      -0.037  23.962 -10.843  0.00  0.00    -0.274 OA
ATOM     25  N   ALA A   2       2.193  23.803 -11.061  0.00  0.00    -0.297 N 
ATOM     26  H   ALA A   2       3.040  24.109 -11.581  0.00  0.00    +0.150 HD
BRANCH  23  27
ATOM     27  CA  ALA A   1       0.980  25.270 -12.576  0.00  0.00    +0.145 C 
ATOM     28  CB  ALA A   1       1.131  24.544 -13.893  0.00  0.00    +0.028 C 
BRANCH  27  29
ATOM     29  N   ALA A   1       2.027  26.272 -12.435  0.00  0.00    -0.238 NA
ATOM     30  H   ALA A   1       2.809  26.282 -13.120  0.00  0.00    +0.142 HD
ENDBRANCH  27  29
ENDBRANCH  23  27
ENDBRANCH  21  25
ENDBRANCH  17  21
ENDBRANCH  16  19
BRANCH  16  31
ATOM     31  CB  LEU A   3       1.808  26.990  -7.391  0.00  0.00    +0.029 C 
BRANCH  31  32
ATOM     32  CG  LEU A   3       3.265  27.420  -7.237  0.00  0.00    +0.002 C 
ATOM     33  CD2 LEU A   3       3.836  26.936  -5.908  0.00  0.00    +0.000 C 
ATOM     34  CD1 LEU A   3       3.375  28.930  -7.354  0.00  0.00    +0.000 C 
ENDBRANCH  31  32
ENDBRANCH  16  31
ENDBRANCH  12  16
ENDBRANCH  11  14
BRANCH  11  35
ATOM     35  CB  ILE A   4      -2.827  24.926  -9.448  0.00  0.00    +0.027 C 
ATOM     36  CG2 ILE A   4      -4.305  24.578  -9.318  0.00  0.00    +0.002 C 
BRANCH  35  37
ATOM     37  CG1 ILE A   4      -2.640  26.311 -10.081  0.00  0.00    +0.002 C 
ATOM     38  CD1 ILE A   4      -3.247  26.432 -11.448  0.00  0.00    +0.000 C 
ENDBRANCH  35  37
ENDBRANCH  11  35
ENDBRANCH   7  11
ENDBRANCH   6   9
BRANCH   6  39
ATOM     39  CB  THR A   5      -0.902  20.162  -8.307  0.00  0.00    +0.137 C 
ATOM     40  CG2 THR A   5      -0.867  18.792  -7.639  0.00  0.00    +0.034 C 
BRANCH  39  41
ATOM     41  OG1 THR A   5      -1.458  20.029  -9.623  0.00  0.00    -0.382 OA
ATOM     42  HG1 THR A   5      -2.384  19.684  -9.556  0.00  0.00    +0.210 HD
ENDBRANCH  39  41
ENDBRANCH   6  39
ENDBRANCH   2   6
ENDBRANCH   1   4
BRANCH   1  43
ATOM     43  C   LYS A   6      -0.668  22.366  -3.424  0.00  0.00    +0.241 C 
ATOM     44  O   LYS A   6      -0.795  21.767  -2.359  0.00  0.00    -0.273 OA
ATOM     45  N   HIS A   7      -1.390  23.435  -3.747  0.00  0.00    -0.297 N 
ATOM     46  H   HIS A   7      -1.235  23.907  -4.661  0.00  0.00    +0.150 HD
BRANCH  45  47
ATOM     47  CA  HIS A   7      -2.394  23.948  -2.832  0.00  0.00    +0.155 C 
BRANCH  47  48
ATOM     48  C   HIS A   7      -3.517  22.927  -2.653  0.00  0.00    +0.241 C 
ATOM     49  O   HIS A   7      -3.925  22.648  -1.533  0.00  0.00    -0.273 OA
ATOM     50  N   LYS A   8      -3.998  22.378  -3.765  0.00  0.00    -0.297 N 
ATOM     51  H   LYS A   8      -3.636  22.721  -4.678  0.00  0.00    +0.150 HD
BRANCH  50  52
ATOM     52  CA  LYS A   8      -5.006  21.321  -3.777  0.00  0.00    +0.149 C 
BRANCH  52  53
ATOM     53  C   LYS A   8      -4.641  20.195  -2.803  0.00  0.00    +0.241 C 
ATOM     54  O   LYS A   8      -5.447  19.776  -1.965  0.00  0.00    -0.273 OA
ATOM     55  N   TRP A   9      -3.413  19.709  -2.923  0.00  0.00    -0.298 N 
ATOM     56  H   TRP A   9      -2.761  20.151  -3.602  0.00  0.00    +0.150 HD
BRANCH  55  57
ATOM     57  CA  TRP A   9      -2.948  18.578  -2.136  0.00  0.00    +0.141 C 
BRANCH  57  58
ATOM     58  C   TRP A   9      -2.683  18.958  -0.681  0.00  0.00    +0.227 C 
ATOM     59  O   TRP A   9      -2.857  18.143   0.227  0.00  0.00    -0.286 OA
ENDBRANCH  57  58
BRANCH  57  60
ATOM     60  CB  TRP A   9      -1.688  17.997  -2.769  0.00  0.00    +0.056 C 
BRANCH  60  61
ATOM     61  CG  TRP A   9      -1.943  17.204  -4.011  0.00  0.00    -0.002 A 
ATOM     62  CD1 TRP A   9      -3.151  16.947  -4.597  0.00  0.00    +0.068 A 
ATOM     63  NE1 TRP A   9      -2.976  16.164  -5.722  0.00  0.00    -0.352 N 
ATOM     64  CE2 TRP A   9      -1.637  15.913  -5.881  0.00  0.00    +0.056 A 
ATOM     65  CZ2 TRP A   9      -0.972  15.175  -6.856  0.00  0.00    +0.017 A 
ATOM     66  CH2 TRP A   9       0.388  15.088  -6.757  0.00  0.00    +0.001 A 
ATOM     67  CZ3 TRP A   9       1.093  15.705  -5.706  0.00  0.00    +0.000 A 
ATOM     68  CE3 TRP A   9       0.439  16.444  -4.750  0.00  0.00    +0.001 A 
ATOM     69  HE1 TRP A   9      -3.735  15.821  -6.345  0.00  0.00    +0.166 HD
ATOM     70  CD2 TRP A   9      -0.955  16.553  -4.824  0.00  0.00    +0.013 A 
ENDBRANCH  60  61
ENDBRANCH  57  60
ENDBRANCH  55  57
ENDBRANCH  52  53
BRANCH  52  71
ATOM     71  CB  LYS A   8      -5.074  20.747  -5.191  0.00  0.00    +0.029 C 
BRANCH  71  72
ATOM     72  CG  LYS A   8      -6.440  20.479  -5.776  0.00  0.00    +0.000 C 
BRANCH  72  73
ATOM     73  CD  LYS A   8      -6.312  20.427  -7.307  0.00  0.00    -0.024 C 
BRANCH  73  74
ATOM     74  CE  LYS A   8      -7.596  19.994  -7.995  0.00  0.00    -0.086 C 
BRANCH  74  75
ATOM     75  NZ  LYS A   8      -7.463  20.046  -9.480  0.00  0.00    +0.380 N 
ATOM     76  HZ1 LYS A   8      -7.243  21.019  -9.773  0.00  0.00    -0.089 HD
ATOM     77  HZ2 LYS A   8      -6.697  19.411  -9.781  0.00  0.00    -0.089 HD
ATOM     78  HZ3 LYS A   8      -8.357  19.744  -9.918  0.00  0.00    -0.089 HD
ENDBRANCH  74  75
ENDBRANCH  73  74
ENDBRANCH  72  73
ENDBRANCH  71  72
ENDBRANCH  52  71
ENDBRANCH  50  52
ENDBRANCH  47  48
BRANCH  47  79
ATOM     79  CB  HIS A   7      -2.953  25.288  -3.311  0.00  0.00    +0.076 C 
BRANCH  79  80
ATOM     80  CG  HIS A   7      -3.795  25.981  -2.285  0.00  0.00    +0.082 A 
ATOM     81  CD2 HIS A   7      -3.466  26.557  -1.104  0.00  0.00    +0.115 A 
ATOM     82  NE2 HIS A   7      -4.627  27.041  -0.550  0.00  0.00    -0.221 NA
ATOM     83  CE1 HIS A   7      -5.635  26.760  -1.355  0.00  0.00    +0.199 A 
ATOM     84  ND1 HIS A   7      -5.162  26.117  -2.408  0.00  0.00    -0.227 NA
ENDBRANCH  79  80
ENDBRANCH  47  79
ENDBRANCH  45  47
ENDBRANCH   1  43
BRANCH   1  85
ATOM     85  CB  LYS A   6       1.584  22.810  -4.372  0.00  0.00    +0.029 C 
BRANCH  85  86
ATOM     86  CG  LYS A   6       2.146  22.965  -2.970  0.00  0.00    +0.000 C 
BRANCH  86  87
ATOM     87  CD  LYS A   6       3.513  23.658  -2.995  0.00  0.00    -0.024 C 
BRANCH  87  88
ATOM     88  CE  LYS A   6       3.919  24.143  -1.607  0.00  0.00    -0.086 C 
BRANCH  88  89
ATOM     89  NZ  LYS A   6       5.347  24.545  -1.545  0.00  0.00    +0.380 N 
ATOM     90  HZ1 LYS A   6       5.574  24.867  -0.582  0.00  0.00    -0.089 HD
ATOM     91  HZ2 LYS A   6       5.946  23.731  -1.790  0.00  0.00    -0.089 HD
ATOM     92  HZ3 LYS A   6       5.518  25.318  -2.219  0.00  0.00    -0.089 HD
ENDBRANCH  88  89
ENDBRANCH  87  88
ENDBRANCH  86  87
ENDBRANCH  85  86
ENDBRANCH   1  85
TORSDOF 38
REMARK  Name = ../refined-set-2016/3p9m/3p9m_pocket.pdb
REMARK  326 active torsions:
REMARK  status: ('A' for Active; 'I' for Inactive)
REMARK    1  A    between atoms: _1  and  _3
REMARK    2  A    between atoms: _3  and  _4
REMARK    3  A    between atoms: _3  and  _6
REMARK    4  A    between atoms: _6  and  _7
REMARK    5  A    between atoms: _10  and  _12
REMARK    6  A    between atoms: _12  and  _13
REMARK    7  A    between atoms: _12  and  _15
REMARK    8  A    between atoms: _15  and  _16
REMARK    9  A    between atoms: _16  and  _17
REMARK   10  A    between atoms: _17  and  _18
REMARK   11  A    between atoms: _27  and  _29
REMARK   12  A    between atoms: _29  and  _30
REMARK   13  A    between atoms: _29  and  _32
REMARK   14  A    between atoms: _32  and  _33
REMARK   15  A    between atoms: _38  and  _39
REMARK   16  A    between atoms: _41  and  _43
REMARK   17  A    between atoms: _43  and  _44
REMARK   18  A    between atoms: _43  and  _46
REMARK   19  A    between atoms: _46  and  _47
REMARK   20  A    between atoms: _53  and  _55
REMARK   21  A    between atoms: _55  and  _56
REMARK   22  A    between atoms: _55  and  _58
REMARK   23  A    between atoms: _61  and  _63
REMARK   24  A    between atoms: _63  and  _64
REMARK   25  A    between atoms: _63  and  _66
REMARK   26  A    between atoms: _66  and  _67
REMARK   27  A    between atoms: _70  and  _72
REMARK   28  A    between atoms: _72  and  _73
REMARK   29  A    between atoms: _72  and  _75
REMARK   30  A    between atoms: _75  and  _76
REMARK   31  A    between atoms: _81  and  _82
REMARK   32  A    between atoms: _84  and  _86
REMARK   33  A    between atoms: _86  and  _87
REMARK   34  A    between atoms: _86  and  _89
REMARK   35  A    between atoms: _89  and  _90
REMARK   36  A    between atoms: _90  and  _91
REMARK   37  A    between atoms: _93  and  _95
REMARK   38  A    between atoms: _95  and  _96
REMARK   39  A    between atoms: _95  and  _98
REMARK   40  A    between atoms: _98  and  _99
REMARK   41  A    between atoms: _99  and  _100
REMARK   42  A    between atoms: _103  and  _105
REMARK   43  A    between atoms: _105  and  _106
REMARK   44  A    between atoms: _105  and  _108
REMARK   45  A    between atoms: _111  and  _113
REMARK   46  A    between atoms: _113  and  _114
REMARK   47  A    between atoms: _116  and  _118
REMARK   48  A    between atoms: _118  and  _119
REMARK   49  A    between atoms: _118  and  _121
REMARK   50  A    between atoms: _121  and  _122
REMARK   51  A    between atoms: _128  and  _130
REMARK   52  A    between atoms: _130  and  _131
REMARK   53  A    between atoms: _130  and  _133
REMARK   54  A    between atoms: _136  and  _138
REMARK   55  A    between atoms: _138  and  _139
REMARK   56  A    between atoms: _138  and  _141
REMARK   57  A    between atoms: _141  and  _142
REMARK   58  A    between atoms: _148  and  _150
REMARK   59  A    between atoms: _150  and  _151
REMARK   60  A    between atoms: _150  and  _153
REMARK   61  A    between atoms: _153  and  _154
REMARK   62  A    between atoms: _159  and  _160
REMARK   63  A    between atoms: _162  and  _164
REMARK   64  A    between atoms: _164  and  _165
REMARK   65  A    between atoms: _164  and  _167
REMARK   66  A    between atoms: _167  and  _168
REMARK   67  A    between atoms: _168  and  _169
REMARK   68  A    between atoms: _171  and  _173
REMARK   69  A    between atoms: _173  and  _174
REMARK   70  A    between atoms: _173  and  _176
REMARK   71  A    between atoms: _176  and  _177
REMARK   72  A    between atoms: _182  and  _183
REMARK   73  A    between atoms: _185  and  _187
REMARK   74  A    between atoms: _187  and  _188
REMARK   75  A    between atoms: _187  and  _190
REMARK   76  A    between atoms: _190  and  _191
REMARK   77  A    between atoms: _191  and  _192
REMARK   78  A    between atoms: _192  and  _193
REMARK   79  A    between atoms: _202  and  _204
REMARK   80  A    between atoms: _204  and  _205
REMARK   81  A    between atoms: _204  and  _207
REMARK   82  A    between atoms: _207  and  _208
REMARK   83  A    between atoms: _208  and  _209
REMARK   84  A    between atoms: _212  and  _214
REMARK   85  A    between atoms: _214  and  _215
REMARK   86  A    between atoms: _214  and  _217
REMARK   87  A    between atoms: _217  and  _218
REMARK   88  A    between atoms: _218  and  _219
REMARK   89  A    between atoms: _219  and  _220
REMARK   90  A    between atoms: _220  and  _221
REMARK   91  A    between atoms: _225  and  _227
REMARK   92  A    between atoms: _227  and  _228
REMARK   93  A    between atoms: _231  and  _233
REMARK   94  A    between atoms: _233  and  _234
REMARK   95  A    between atoms: _236  and  _238
REMARK   96  A    between atoms: _238  and  _239
REMARK   97  A    between atoms: _238  and  _241
REMARK   98  A    between atoms: _241  and  _242
REMARK   99  A    between atoms: _247  and  _249
REMARK  100  A    between atoms: _249  and  _250
REMARK  101  A    between atoms: _249  and  _252
REMARK  102  A    between atoms: _252  and  _253
REMARK  103  A    between atoms: _253  and  _254
REMARK  104  A    between atoms: _257  and  _259
REMARK  105  A    between atoms: _259  and  _260
REMARK  106  A    between atoms: _259  and  _262
REMARK  107  A    between atoms: _262  and  _263
REMARK  108  A    between atoms: _263  and  _264
REMARK  109  A    between atoms: _269  and  _271
REMARK  110  A    between atoms: _271  and  _272
REMARK  111  A    between atoms: _271  and  _274
REMARK  112  A    between atoms: _274  and  _275
REMARK  113  A    between atoms: _277  and  _279
REMARK  114  A    between atoms: _279  and  _280
REMARK  115  A    between atoms: _279  and  _282
REMARK  116  A    between atoms: _282  and  _283
REMARK  117  A    between atoms: _289  and  _291
REMARK  118  A    between atoms: _291  and  _292
REMARK  119  A    between atoms: _291  and  _294
REMARK  120  A    between atoms: _294  and  _295
REMARK  121  A    between atoms: _295  and  _296
REMARK  122  A    between atoms: _296  and  _297
REMARK  123  A    between atoms: _306  and  _308
REMARK  124  A    between atoms: _308  and  _309
REMARK  125  A    between atoms: _308  and  _311
REMARK  126  A    between atoms: _314  and  _316
REMARK  127  A    between atoms: _316  and  _317
REMARK  128  A    between atoms: _316  and  _319
REMARK  129  A    between atoms: _319  and  _320
REMARK  130  A    between atoms: _323  and  _325
REMARK  131  A    between atoms: _325  and  _326
REMARK  132  A    between atoms: _325  and  _328
REMARK  133  A    between atoms: _328  and  _329
REMARK  134  A    between atoms: _332  and  _334
REMARK  135  A    between atoms: _334  and  _335
REMARK  136  A    between atoms: _334  and  _337
REMARK  137  A    between atoms: _337  and  _338
REMARK  138  A    between atoms: _338  and  _339
REMARK  139  A    between atoms: _339  and  _340
REMARK  140  A    between atoms: _349  and  _351
REMARK  141  A    between atoms: _351  and  _352
REMARK  142  A    between atoms: _351  and  _354
REMARK  143  A    between atoms: _354  and  _355
REMARK  144  A    between atoms: _358  and  _360
REMARK  145  A    between atoms: _360  and  _361
REMARK  146  A    between atoms: _360  and  _363
REMARK  147  A    between atoms: _363  and  _364
REMARK  148  A    between atoms: _367  and  _369
REMARK  149  A    between atoms: _369  and  _370
REMARK  150  A    between atoms: _369  and  _372
REMARK  151  A    between atoms: _372  and  _373
REMARK  152  A    between atoms: _378  and  _379
REMARK  153  A    between atoms: _381  and  _383
REMARK  154  A    between atoms: _383  and  _384
REMARK  155  A    between atoms: _383  and  _386
REMARK  156  A    between atoms: _386  and  _387
REMARK  157  A    between atoms: _392  and  _393
REMARK  158  A    between atoms: _395  and  _397
REMARK  159  A    between atoms: _397  and  _398
REMARK  160  A    between atoms: _397  and  _400
REMARK  161  A    between atoms: _400  and  _401
REMARK  162  A    between atoms: _404  and  _406
REMARK  163  A    between atoms: _406  and  _407
REMARK  164  A    between atoms: _406  and  _409
REMARK  165  A    between atoms: _409  and  _410
REMARK  166  A    between atoms: _410  and  _411
REMARK  167  A    between atoms: _416  and  _418
REMARK  168  A    between atoms: _418  and  _419
REMARK  169  A    between atoms: _418  and  _421
REMARK  170  A    between atoms: _424  and  _426
REMARK  171  A    between atoms: _426  and  _427
REMARK  172  A    between atoms: _426  and  _429
REMARK  173  A    between atoms: _429  and  _430
REMARK  174  A    between atoms: _433  and  _435
REMARK  175  A    between atoms: _435  and  _436
REMARK  176  A    between atoms: _435  and  _438
REMARK  177  A    between atoms: _438  and  _439
REMARK  178  A    between atoms: _441  and  _443
REMARK  179  A    between atoms: _443  and  _444
REMARK  180  A    between atoms: _446  and  _448
REMARK  181  A    between atoms: _448  and  _449
REMARK  182  A    between atoms: _448  and  _451
REMARK  183  A    between atoms: _451  and  _452
REMARK  184  A    between atoms: _452  and  _753
REMARK  185  A    between atoms: _453  and  _455
REMARK  186  A    between atoms: _455  and  _456
REMARK  187  A    between atoms: _455  and  _458
REMARK  188  A    between atoms: _458  and  _459
REMARK  189  A    between atoms: _464  and  _465
REMARK  190  A    between atoms: _467  and  _469
REMARK  191  A    between atoms: _469  and  _470
REMARK  192  A    between atoms: _469  and  _472
REMARK  193  A    between atoms: _472  and  _473
REMARK  194  A    between atoms: _473  and  _474
REMARK  195  A    between atoms: _479  and  _481
REMARK  196  A    between atoms: _481  and  _482
REMARK  197  A    between atoms: _481  and  _484
REMARK  198  A    between atoms: _484  and  _485
REMARK  199  A    between atoms: _485  and  _486
REMARK  200  A    between atoms: _491  and  _493
REMARK  201  A    between atoms: _493  and  _494
REMARK  202  A    between atoms: _493  and  _496
REMARK  203  A    between atoms: _496  and  _497
REMARK  204  A    between atoms: _502  and  _503
REMARK  205  A    between atoms: _505  and  _507
REMARK  206  A    between atoms: _507  and  _508
REMARK  207  A    between atoms: _511  and  _513
REMARK  208  A    between atoms: _513  and  _514
REMARK  209  A    between atoms: _513  and  _516
REMARK  210  A    between atoms: _516  and  _517
REMARK  211  A    between atoms: _522  and  _523
REMARK  212  A    between atoms: _525  and  _527
REMARK  213  A    between atoms: _527  and  _528
REMARK  214  A    between atoms: _527  and  _530
REMARK  215  A    between atoms: _530  and  _531
REMARK  216  A    between atoms: _536  and  _537
REMARK  217  A    between atoms: _539  and  _541
REMARK  218  A    between atoms: _541  and  _542
REMARK  219  A    between atoms: _541  and  _544
REMARK  220  A    between atoms: _544  and  _545
REMARK  221  A    between atoms: _548  and  _550
REMARK  222  A    between atoms: _550  and  _551
REMARK  223  A    between atoms: _554  and  _556
REMARK  224  A    between atoms: _556  and  _557
REMARK  225  A    between atoms: _560  and  _562
REMARK  226  A    between atoms: _562  and  _563
REMARK  227  A    between atoms: _562  and  _565
REMARK  228  A    between atoms: _565  and  _566
REMARK  229  A    between atoms: _569  and  _571
REMARK  230  A    between atoms: _571  and  _572
REMARK  231  A    between atoms: _571  and  _574
REMARK  232  A    between atoms: _574  and  _575
REMARK  233  A    between atoms: _578  and  _580
REMARK  234  A    between atoms: _580  and  _581
REMARK  235  A    between atoms: _580  and  _583
REMARK  236  A    between atoms: _583  and  _584
REMARK  237  A    between atoms: _587  and  _589
REMARK  238  A    between atoms: _589  and  _590
REMARK  239  A    between atoms: _589  and  _592
REMARK  240  A    between atoms: _592  and  _593
REMARK  241  A    between atoms: _593  and  _594
REMARK  242  A    between atoms: _594  and  _595
REMARK  243  A    between atoms: _595  and  _596
REMARK  244  A    between atoms: _600  and  _602
REMARK  245  A    between atoms: _602  and  _603
REMARK  246  A    between atoms: _602  and  _605
REMARK  247  A    between atoms: _605  and  _606
REMARK  248  A    between atoms: _611  and  _613
REMARK  249  A    between atoms: _613  and  _614
REMARK  250  A    between atoms: _613  and  _616
REMARK  251  A    between atoms: _616  and  _617
REMARK  252  A    between atoms: _617  and  _618
REMARK  253  A    between atoms: _618  and  _619
REMARK  254  A    between atoms: _619  and  _620
REMARK  255  A    between atoms: _624  and  _626
REMARK  256  A    between atoms: _626  and  _627
REMARK  257  A    between atoms: _626  and  _629
REMARK  258  A    between atoms: _629  and  _630
REMARK  259  A    between atoms: _640  and  _642
REMARK  260  A    between atoms: _642  and  _643
REMARK  261  A    between atoms: _646  and  _648
REMARK  262  A    between atoms: _648  and  _649
REMARK  263  A    between atoms: _648  and  _651
REMARK  264  A    between atoms: _651  and  _652
REMARK  265  A    between atoms: _652  and  _653
REMARK  266  A    between atoms: _656  and  _658
REMARK  267  A    between atoms: _658  and  _659
REMARK  268  A    between atoms: _658  and  _661
REMARK  269  A    between atoms: _661  and  _662
REMARK  270  A    between atoms: _662  and  _663
REMARK  271  A    between atoms: _666  and  _668
REMARK  272  A    between atoms: _668  and  _669
REMARK  273  A    between atoms: _668  and  _671
REMARK  274  A    between atoms: _671  and  _672
REMARK  275  A    between atoms: _672  and  _673
REMARK  276  A    between atoms: _673  and  _674
REMARK  277  A    between atoms: _683  and  _685
REMARK  278  A    between atoms: _685  and  _686
REMARK  279  A    between atoms: _685  and  _688
REMARK  280  A    between atoms: _688  and  _689
REMARK  281  A    between atoms: _692  and  _694
REMARK  282  A    between atoms: _694  and  _695
REMARK  283  A    between atoms: _694  and  _697
REMARK  284  A    between atoms: _697  and  _698
REMARK  285  A    between atoms: _698  and  _699
REMARK  286  A    between atoms: _699  and  _700
REMARK  287  A    between atoms: _709  and  _711
REMARK  288  A    between atoms: _711  and  _712
REMARK  289  A    between atoms: _715  and  _717
REMARK  290  A    between atoms: _717  and  _718
REMARK  291  A    between atoms: _717  and  _720
REMARK  292  A    between atoms: _720  and  _721
REMARK  293  A    between atoms: _726  and  _727
REMARK  294  A    between atoms: _729  and  _731
REMARK  295  A    between atoms: _731  and  _732
REMARK  296  A    between atoms: _731  and  _734
REMARK  297  A    between atoms: _734  and  _735
REMARK  298  A    between atoms: _738  and  _740
REMARK  299  A    between atoms: _740  and  _741
REMARK  300  A    between atoms: _740  and  _743
REMARK  301  A    between atoms: _743  and  _744
REMARK  302  A    between atoms: _747  and  _749
REMARK  303  A    between atoms: _749  and  _750
REMARK  304  A    between atoms: _749  and  _752
REMARK  305  A    between atoms: _752  and  _753
REMARK  306  A    between atoms: _754  and  _756
REMARK  307  A    between atoms: _756  and  _757
REMARK  308  A    between atoms: _756  and  _759
REMARK  309  A    between atoms: _762  and  _764
REMARK  310  A    between atoms: _764  and  _765
REMARK  311  A    between atoms: _764  and  _767
REMARK  312  A    between atoms: _767  and  _768
REMARK  313  A    between atoms: _768  and  _769
REMARK  314  A    between atoms: _772  and  _774
REMARK  315  A    between atoms: _774  and  _775
REMARK  316  A    between atoms: _774  and  _777
REMARK  317  A    between atoms: _777  and  _778
REMARK  318  A    between atoms: _788  and  _790
REMARK  319  A    between atoms: _790  and  _791
REMARK  320  A    between atoms: _790  and  _793
REMARK  321  A    between atoms: _793  and  _794
REMARK  322  A    between atoms: _797  and  _799
REMARK  323  A    between atoms: _799  and  _800
REMARK  324  A    between atoms: _799  and  _802
REMARK  325  A    between atoms: _802  and  _803
REMARK  326  A    between atoms: _808  and  _809
REMARK                            x       y       z     vdW  Elec       q    Type
REMARK                         _______ _______ _______ _____ _____    ______ ____
ROOT
ATOM      1  CA  ALA A   1      -6.727  17.449   1.070  0.00  0.00    +0.133 C 
ATOM      2  CB  ALA A   1      -6.963  16.753  -0.267  0.00  0.00    +0.027 C 
ENDROOT
BRANCH   1   3
ATOM      3  N   ALA A   1      -6.167  18.780   0.859  0.00  0.00    -0.239 NA
ATOM      4  H   ALA A   1      -5.585  18.965   0.017  0.00  0.00    +0.142 HD
ENDBRANCH   1   3
BRANCH   1   5
ATOM      5  C   ALA A   1      -5.891  16.569   1.995  0.00  0.00    +0.224 C 
ATOM      6  O   ALA A   1      -6.263  15.424   2.270  0.00  0.00    -0.287 OA
ENDBRANCH   1   5
TORSDOF 2
REMARK  Name = ../refined-set-2016/3p9m/3p9m_pocket.pdb
REMARK  326 active torsions:
REMARK  status: ('A' for Active; 'I' for Inactive)
REMARK    1  A    between atoms: _1  and  _3
REMARK    2  A    between atoms: _3  and  _4
REMARK    3  A    between atoms: _3  and  _6
REMARK    4  A    between atoms: _6  and  _7
REMARK    5  A    between atoms: _10  and  _12
REMARK    6  A    between atoms: _12  and  _13
REMARK    7  A    between atoms: _12  and  _15
REMARK    8  A    between atoms: _15  and  _16
REMARK    9  A    between atoms: _16  and  _17
REMARK   10  A    between atoms: _17  and  _18
REMARK   11  A    between atoms: _27  and  _29
REMARK   12  A    between atoms: _29  and  _30
REMARK   13  A    between atoms: _29  and  _32
REMARK   14  A    between atoms: _32  and  _33
REMARK   15  A    between atoms: _38  and  _39
REMARK   16  A    between atoms: _41  and  _43
REMARK   17  A    between atoms: _43  and  _44
REMARK   18  A    between atoms: _43  and  _46
REMARK   19  A    between atoms: _46  and  _47
REMARK   20  A    between atoms: _53  and  _55
REMARK   21  A    between atoms: _55  and  _56
REMARK   22  A    between atoms: _55  and  _58
REMARK   23  A    between atoms: _61  and  _63
REMARK   24  A    between atoms: _63  and  _64
REMARK   25  A    between atoms: _63  and  _66
REMARK   26  A    between atoms: _66  and  _67
REMARK   27  A    between atoms: _70  and  _72
REMARK   28  A    between atoms: _72  and  _73
REMARK   29  A    between atoms: _72  and  _75
REMARK   30  A    between atoms: _75  and  _76
REMARK   31  A    between atoms: _81  and  _82
REMARK   32  A    between atoms: _84  and  _86
REMARK   33  A    between atoms: _86  and  _87
REMARK   34  A    between atoms: _86  and  _89
REMARK   35  A    between atoms: _89  and  _90
REMARK   36  A    between atoms: _90  and  _91
REMARK   37  A    between atoms: _93  and  _95
REMARK   38  A    between atoms: _95  and  _96
REMARK   39  A    between atoms: _95  and  _98
REMARK   40  A    between atoms: _98  and  _99
REMARK   41  A    between atoms: _99  and  _100
REMARK   42  A    between atoms: _103  and  _105
REMARK   43  A    between atoms: _105  and  _106
REMARK   44  A    between atoms: _105  and  _108
REMARK   45  A    between atoms: _111  and  _113
REMARK   46  A    between atoms: _113  and  _114
REMARK   47  A    between atoms: _116  and  _118
REMARK   48  A    between atoms: _118  and  _119
REMARK   49  A    between atoms: _118  and  _121
REMARK   50  A    between atoms: _121  and  _122
REMARK   51  A    between atoms: _128  and  _130
REMARK   52  A    between atoms: _130  and  _131
REMARK   53  A    between atoms: _130  and  _133
REMARK   54  A    between atoms: _136  and  _138
REMARK   55  A    between atoms: _138  and  _139
REMARK   56  A    between atoms: _138  and  _141
REMARK   57  A    between atoms: _141  and  _142
REMARK   58  A    between atoms: _148  and  _150
REMARK   59  A    between atoms: _150  and  _151
REMARK   60  A    between atoms: _150  and  _153
REMARK   61  A    between atoms: _153  and  _154
REMARK   62  A    between atoms: _159  and  _160
REMARK   63  A    between atoms: _162  and  _164
REMARK   64  A    between atoms: _164  and  _165
REMARK   65  A    between atoms: _164  and  _167
REMARK   66  A    between atoms: _167  and  _168
REMARK   67  A    between atoms: _168  and  _169
REMARK   68  A    between atoms: _171  and  _173
REMARK   69  A    between atoms: _173  and  _174
REMARK   70  A    between atoms: _173  and  _176
REMARK   71  A    between atoms: _176  and  _177
REMARK   72  A    between atoms: _182  and  _183
REMARK   73  A    between atoms: _185  and  _187
REMARK   74  A    between atoms: _187  and  _188
REMARK   75  A    between atoms: _187  and  _190
REMARK   76  A    between atoms: _190  and  _191
REMARK   77  A    between atoms: _191  and  _192
REMARK   78  A    between atoms: _192  and  _193
REMARK   79  A    between atoms: _202  and  _204
REMARK   80  A    between atoms: _204  and  _205
REMARK   81  A    between atoms: _204  and  _207
REMARK   82  A    between atoms: _207  and  _208
REMARK   83  A    between atoms: _208  and  _209
REMARK   84  A    between atoms: _212  and  _214
REMARK   85  A    between atoms: _214  and  _215
REMARK   86  A    between atoms: _214  and  _217
REMARK   87  A    between atoms: _217  and  _218
REMARK   88  A    between atoms: _218  and  _219
REMARK   89  A    between atoms: _219  and  _220
REMARK   90  A    between atoms: _220  and  _221
REMARK   91  A    between atoms: _225  and  _227
REMARK   92  A    between atoms: _227  and  _228
REMARK   93  A    between atoms: _231  and  _233
REMARK   94  A    between atoms: _233  and  _234
REMARK   95  A    between atoms: _236  and  _238
REMARK   96  A    between atoms: _238  and  _239
REMARK   97  A    between atoms: _238  and  _241
REMARK   98  A    between atoms: _241  and  _242
REMARK   99  A    between atoms: _247  and  _249
REMARK  100  A    between atoms: _249  and  _250
REMARK  101  A    between atoms: _249  and  _252
REMARK  102  A    between atoms: _252  and  _253
REMARK  103  A    between atoms: _253  and  _254
REMARK  104  A    between atoms: _257  and  _259
REMARK  105  A    between atoms: _259  and  _260
REMARK  106  A    between atoms: _259  and  _262
REMARK  107  A    between atoms: _262  and  _263
REMARK  108  A    between atoms: _263  and  _264
REMARK  109  A    between atoms: _269  and  _271
REMARK  110  A    between atoms: _271  and  _272
REMARK  111  A    between atoms: _271  and  _274
REMARK  112  A    between atoms: _274  and  _275
REMARK  113  A    between atoms: _277  and  _279
REMARK  114  A    between atoms: _279  and  _280
REMARK  115  A    between atoms: _279  and  _282
REMARK  116  A    between atoms: _282  and  _283
REMARK  117  A    between atoms: _289  and  _291
REMARK  118  A    between atoms: _291  and  _292
REMARK  119  A    between atoms: _291  and  _294
REMARK  120  A    between atoms: _294  and  _295
REMARK  121  A    between atoms: _295  and  _296
REMARK  122  A    between atoms: _296  and  _297
REMARK  123  A    between atoms: _306  and  _308
REMARK  124  A    between atoms: _308  and  _309
REMARK  125  A    between atoms: _308  and  _311
REMARK  126  A    between atoms: _314  and  _316
REMARK  127  A    between atoms: _316  and  _317
REMARK  128  A    between atoms: _316  and  _319
REMARK  129  A    between atoms: _319  and  _320
REMARK  130  A    between atoms: _323  and  _325
REMARK  131  A    between atoms: _325  and  _326
REMARK  132  A    between atoms: _325  and  _328
REMARK  133  A    between atoms: _328  and  _329
REMARK  134  A    between atoms: _332  and  _334
REMARK  135  A    between atoms: _334  and  _335
REMARK  136  A    between atoms: _334  and  _337
REMARK  137  A    between atoms: _337  and  _338
REMARK  138  A    between atoms: _338  and  _339
REMARK  139  A    between atoms: _339  and  _340
REMARK  140  A    between atoms: _349  and  _351
REMARK  141  A    between atoms: _351  and  _352
REMARK  142  A    between atoms: _351  and  _354
REMARK  143  A    between atoms: _354  and  _355
REMARK  144  A    between atoms: _358  and  _360
REMARK  145  A    between atoms: _360  and  _361
REMARK  146  A    between atoms: _360  and  _363
REMARK  147  A    between atoms: _363  and  _364
REMARK  148  A    between atoms: _367  and  _369
REMARK  149  A    between atoms: _369  and  _370
REMARK  150  A    between atoms: _369  and  _372
REMARK  151  A    between atoms: _372  and  _373
REMARK  152  A    between atoms: _378  and  _379
REMARK  153  A    between atoms: _381  and  _383
REMARK  154  A    between atoms: _383  and  _384
REMARK  155  A    between atoms: _383  and  _386
REMARK  156  A    between atoms: _386  and  _387
REMARK  157  A    between atoms: _392  and  _393
REMARK  158  A    between atoms: _395  and  _397
REMARK  159  A    between atoms: _397  and  _398
REMARK  160  A    between atoms: _397  and  _400
REMARK  161  A    between atoms: _400  and  _401
REMARK  162  A    between atoms: _404  and  _406
REMARK  163  A    between atoms: _406  and  _407
REMARK  164  A    between atoms: _406  and  _409
REMARK  165  A    between atoms: _409  and  _410
REMARK  166  A    between atoms: _410  and  _411
REMARK  167  A    between atoms: _416  and  _418
REMARK  168  A    between atoms: _418  and  _419
REMARK  169  A    between atoms: _418  and  _421
REMARK  170  A    between atoms: _424  and  _426
REMARK  171  A    between atoms: _426  and  _427
REMARK  172  A    between atoms: _426  and  _429
REMARK  173  A    between atoms: _429  and  _430
REMARK  174  A    between atoms: _433  and  _435
REMARK  175  A    between atoms: _435  and  _436
REMARK  176  A    between atoms: _435  and  _438
REMARK  177  A    between atoms: _438  and  _439
REMARK  178  A    between atoms: _441  and  _443
REMARK  179  A    between atoms: _443  and  _444
REMARK  180  A    between atoms: _446  and  _448
REMARK  181  A    between atoms: _448  and  _449
REMARK  182  A    between atoms: _448  and  _451
REMARK  183  A    between atoms: _451  and  _452
REMARK  184  A    between atoms: _452  and  _753
REMARK  185  A    between atoms: _453  and  _455
REMARK  186  A    between atoms: _455  and  _456
REMARK  187  A    between atoms: _455  and  _458
REMARK  188  A    between atoms: _458  and  _459
REMARK  189  A    between atoms: _464  and  _465
REMARK  190  A    between atoms: _467  and  _469
REMARK  191  A    between atoms: _469  and  _470
REMARK  192  A    between atoms: _469  and  _472
REMARK  193  A    between atoms: _472  and  _473
REMARK  194  A    between atoms: _473  and  _474
REMARK  195  A    between atoms: _479  and  _481
REMARK  196  A    between atoms: _481  and  _482
REMARK  197  A    between atoms: _481  and  _484
REMARK  198  A    between atoms: _484  and  _485
REMARK  199  A    between atoms: _485  and  _486
REMARK  200  A    between atoms: _491  and  _493
REMARK  201  A    between atoms: _493  and  _494
REMARK  202  A    between atoms: _493  and  _496
REMARK  203  A    between atoms: _496  and  _497
REMARK  204  A    between atoms: _502  and  _503
REMARK  205  A    between atoms: _505  and  _507
REMARK  206  A    between atoms: _507  and  _508
REMARK  207  A    between atoms: _511  and  _513
REMARK  208  A    between atoms: _513  and  _514
REMARK  209  A    between atoms: _513  and  _516
REMARK  210  A    between atoms: _516  and  _517
REMARK  211  A    between atoms: _522  and  _523
REMARK  212  A    between atoms: _525  and  _527
REMARK  213  A    between atoms: _527  and  _528
REMARK  214  A    between atoms: _527  and  _530
REMARK  215  A    between atoms: _530  and  _531
REMARK  216  A    between atoms: _536  and  _537
REMARK  217  A    between atoms: _539  and  _541
REMARK  218  A    between atoms: _541  and  _542
REMARK  219  A    between atoms: _541  and  _544
REMARK  220  A    between atoms: _544  and  _545
REMARK  221  A    between atoms: _548  and  _550
REMARK  222  A    between atoms: _550  and  _551
REMARK  223  A    between atoms: _554  and  _556
REMARK  224  A    between atoms: _556  and  _557
REMARK  225  A    between atoms: _560  and  _562
REMARK  226  A    between atoms: _562  and  _563
REMARK  227  A    between atoms: _562  and  _565
REMARK  228  A    between atoms: _565  and  _566
REMARK  229  A    between atoms: _569  and  _571
REMARK  230  A    between atoms: _571  and  _572
REMARK  231  A    between atoms: _571  and  _574
REMARK  232  A    between atoms: _574  and  _575
REMARK  233  A    between atoms: _578  and  _580
REMARK  234  A    between atoms: _580  and  _581
REMARK  235  A    between atoms: _580  and  _583
REMARK  236  A    between atoms: _583  and  _584
REMARK  237  A    between atoms: _587  and  _589
REMARK  238  A    between atoms: _589  and  _590
REMARK  239  A    between atoms: _589  and  _592
REMARK  240  A    between atoms: _592  and  _593
REMARK  241  A    between atoms: _593  and  _594
REMARK  242  A    between atoms: _594  and  _595
REMARK  243  A    between atoms: _595  and  _596
REMARK  244  A    between atoms: _600  and  _602
REMARK  245  A    between atoms: _602  and  _603
REMARK  246  A    between atoms: _602  and  _605
REMARK  247  A    between atoms: _605  and  _606
REMARK  248  A    between atoms: _611  and  _613
REMARK  249  A    between atoms: _613  and  _614
REMARK  250  A    between atoms: _613  and  _616
REMARK  251  A    between atoms: _616  and  _617
REMARK  252  A    between atoms: _617  and  _618
REMARK  253  A    between atoms: _618  and  _619
REMARK  254  A    between atoms: _619  and  _620
REMARK  255  A    between atoms: _624  and  _626
REMARK  256  A    between atoms: _626  and  _627
REMARK  257  A    between atoms: _626  and  _629
REMARK  258  A    between atoms: _629  and  _630
REMARK  259  A    between atoms: _640  and  _642
REMARK  260  A    between atoms: _642  and  _643
REMARK  261  A    between atoms: _646  and  _648
REMARK  262  A    between atoms: _648  and  _649
REMARK  263  A    between atoms: _648  and  _651
REMARK  264  A    between atoms: _651  and  _652
REMARK  265  A    between atoms: _652  and  _653
REMARK  266  A    between atoms: _656  and  _658
REMARK  267  A    between atoms: _658  and  _659
REMARK  268  A    between atoms: _658  and  _661
REMARK  269  A    between atoms: _661  and  _662
REMARK  270  A    between atoms: _662  and  _663
REMARK  271  A    between atoms: _666  and  _668
REMARK  272  A    between atoms: _668  and  _669
REMARK  273  A    between atoms: _668  and  _671
REMARK  274  A    between atoms: _671  and  _672
REMARK  275  A    between atoms: _672  and  _673
REMARK  276  A    between atoms: _673  and  _674
REMARK  277  A    between atoms: _683  and  _685
REMARK  278  A    between atoms: _685  and  _686
REMARK  279  A    between atoms: _685  and  _688
REMARK  280  A    between atoms: _688  and  _689
REMARK  281  A    between atoms: _692  and  _694
REMARK  282  A    between atoms: _694  and  _695
REMARK  283  A    between atoms: _694  and  _697
REMARK  284  A    between atoms: _697  and  _698
REMARK  285  A    between atoms: _698  and  _699
REMARK  286  A    between atoms: _699  and  _700
REMARK  287  A    between atoms: _709  and  _711
REMARK  288  A    between atoms: _711  and  _712
REMARK  289  A    between atoms: _715  and  _717
REMARK  290  A    between atoms: _717  and  _718
REMARK  291  A    between atoms: _717  and  _720
REMARK  292  A    between atoms: _720  and  _721
REMARK  293  A    between atoms: _726  and  _727
REMARK  294  A    between atoms: _729  and  _731
REMARK  295  A    between atoms: _731  and  _732
REMARK  296  A    between atoms: _731  and  _734
REMARK  297  A    between atoms: _734  and  _735
REMARK  298  A    between atoms: _738  and  _740
REMARK  299  A    between atoms: _740  and  _741
REMARK  300  A    between atoms: _740  and  _743
REMARK  301  A    between atoms: _743  and  _744
REMARK  302  A    between atoms: _747  and  _749
REMARK  303  A    between atoms: _749  and  _750
REMARK  304  A    between atoms: _749  and  _752
REMARK  305  A    between atoms: _752  and  _753
REMARK  306  A    between atoms: _754  and  _756
REMARK  307  A    between atoms: _756  and  _757
REMARK  308  A    between atoms: _756  and  _759
REMARK  309  A    between atoms: _762  and  _764
REMARK  310  A    between atoms: _764  and  _765
REMARK  311  A    between atoms: _764  and  _767
REMARK  312  A    between atoms: _767  and  _768
REMARK  313  A    between atoms: _768  and  _769
REMARK  314  A    between atoms: _772  and  _774
REMARK  315  A    between atoms: _774  and  _775
REMARK  316  A    between atoms: _774  and  _777
REMARK  317  A    between atoms: _777  and  _778
REMARK  318  A    between atoms: _788  and  _790
REMARK  319  A    between atoms: _790  and  _791
REMARK  320  A    between atoms: _790  and  _793
REMARK  321  A    between atoms: _793  and  _794
REMARK  322  A    between atoms: _797  and  _799
REMARK  323  A    between atoms: _799  and  _800
REMARK  324  A    between atoms: _799  and  _802
REMARK  325  A    between atoms: _802  and  _803
REMARK  326  A    between atoms: _808  and  _809
REMARK                            x       y       z     vdW  Elec       q    Type
REMARK                         _______ _______ _______ _____ _____    ______ ____
ROOT
ATOM      1  CA  GLU A   1      -2.302  14.342   0.420  0.00  0.00    +0.134 C 
ENDROOT
BRANCH   1   2
ATOM      2  N   GLU A   1      -2.887  15.380   1.269  0.00  0.00    -0.239 NA
ATOM      3  H   GLU A   1      -3.032  16.331   0.875  0.00  0.00    +0.142 HD
ENDBRANCH   1   2
BRANCH   1   4
ATOM      4  C   GLU A   1      -0.983  13.810   0.977  0.00  0.00    +0.224 C 
ATOM      5  O   GLU A   1      -0.719  12.602   0.940  0.00  0.00    -0.287 OA
ENDBRANCH   1   4
BRANCH   1   6
ATOM      6  CB  GLU A   1      -2.091  14.869  -1.004  0.00  0.00    +0.037 C 
BRANCH   6   7
ATOM      7  CG  GLU A   1      -1.273  13.944  -1.906  0.00  0.00    +0.116 C 
BRANCH   7   8
ATOM      8  CD  GLU A   1      -2.084  12.799  -2.477  0.00  0.00    +0.365 C 
ATOM      9  OE2 GLU A   1      -3.213  12.556  -1.995  0.00  0.00    -0.246 OA
ATOM     10  OE1 GLU A   1      -1.584  12.130  -3.413  0.00  0.00    -0.246 OA
ENDBRANCH   7   8
ENDBRANCH   6   7
ENDBRANCH   1   6
TORSDOF 5
REMARK  Name = ../refined-set-2016/3p9m/3p9m_pocket.pdb
REMARK  326 active torsions:
REMARK  status: ('A' for Active; 'I' for Inactive)
REMARK    1  A    between atoms: _1  and  _3
REMARK    2  A    between atoms: _3  and  _4
REMARK    3  A    between atoms: _3  and  _6
REMARK    4  A    between atoms: _6  and  _7
REMARK    5  A    between atoms: _10  and  _12
REMARK    6  A    between atoms: _12  and  _13
REMARK    7  A    between atoms: _12  and  _15
REMARK    8  A    between atoms: _15  and  _16
REMARK    9  A    between atoms: _16  and  _17
REMARK   10  A    between atoms: _17  and  _18
REMARK   11  A    between atoms: _27  and  _29
REMARK   12  A    between atoms: _29  and  _30
REMARK   13  A    between atoms: _29  and  _32
REMARK   14  A    between atoms: _32  and  _33
REMARK   15  A    between atoms: _38  and  _39
REMARK   16  A    between atoms: _41  and  _43
REMARK   17  A    between atoms: _43  and  _44
REMARK   18  A    between atoms: _43  and  _46
REMARK   19  A    between atoms: _46  and  _47
REMARK   20  A    between atoms: _53  and  _55
REMARK   21  A    between atoms: _55  and  _56
REMARK   22  A    between atoms: _55  and  _58
REMARK   23  A    between atoms: _61  and  _63
REMARK   24  A    between atoms: _63  and  _64
REMARK   25  A    between atoms: _63  and  _66
REMARK   26  A    between atoms: _66  and  _67
REMARK   27  A    between atoms: _70  and  _72
REMARK   28  A    between atoms: _72  and  _73
REMARK   29  A    between atoms: _72  and  _75
REMARK   30  A    between atoms: _75  and  _76
REMARK   31  A    between atoms: _81  and  _82
REMARK   32  A    between atoms: _84  and  _86
REMARK   33  A    between atoms: _86  and  _87
REMARK   34  A    between atoms: _86  and  _89
REMARK   35  A    between atoms: _89  and  _90
REMARK   36  A    between atoms: _90  and  _91
REMARK   37  A    between atoms: _93  and  _95
REMARK   38  A    between atoms: _95  and  _96
REMARK   39  A    between atoms: _95  and  _98
REMARK   40  A    between atoms: _98  and  _99
REMARK   41  A    between atoms: _99  and  _100
REMARK   42  A    between atoms: _103  and  _105
REMARK   43  A    between atoms: _105  and  _106
REMARK   44  A    between atoms: _105  and  _108
REMARK   45  A    between atoms: _111  and  _113
REMARK   46  A    between atoms: _113  and  _114
REMARK   47  A    between atoms: _116  and  _118
REMARK   48  A    between atoms: _118  and  _119
REMARK   49  A    between atoms: _118  and  _121
REMARK   50  A    between atoms: _121  and  _122
REMARK   51  A    between atoms: _128  and  _130
REMARK   52  A    between atoms: _130  and  _131
REMARK   53  A    between atoms: _130  and  _133
REMARK   54  A    between atoms: _136  and  _138
REMARK   55  A    between atoms: _138  and  _139
REMARK   56  A    between atoms: _138  and  _141
REMARK   57  A    between atoms: _141  and  _142
REMARK   58  A    between atoms: _148  and  _150
REMARK   59  A    between atoms: _150  and  _151
REMARK   60  A    between atoms: _150  and  _153
REMARK   61  A    between atoms: _153  and  _154
REMARK   62  A    between atoms: _159  and  _160
REMARK   63  A    between atoms: _162  and  _164
REMARK   64  A    between atoms: _164  and  _165
REMARK   65  A    between atoms: _164  and  _167
REMARK   66  A    between atoms: _167  and  _168
REMARK   67  A    between atoms: _168  and  _169
REMARK   68  A    between atoms: _171  and  _173
REMARK   69  A    between atoms: _173  and  _174
REMARK   70  A    between atoms: _173  and  _176
REMARK   71  A    between atoms: _176  and  _177
REMARK   72  A    between atoms: _182  and  _183
REMARK   73  A    between atoms: _185  and  _187
REMARK   74  A    between atoms: _187  and  _188
REMARK   75  A    between atoms: _187  and  _190
REMARK   76  A    between atoms: _190  and  _191
REMARK   77  A    between atoms: _191  and  _192
REMARK   78  A    between atoms: _192  and  _193
REMARK   79  A    between atoms: _202  and  _204
REMARK   80  A    between atoms: _204  and  _205
REMARK   81  A    between atoms: _204  and  _207
REMARK   82  A    between atoms: _207  and  _208
REMARK   83  A    between atoms: _208  and  _209
REMARK   84  A    between atoms: _212  and  _214
REMARK   85  A    between atoms: _214  and  _215
REMARK   86  A    between atoms: _214  and  _217
REMARK   87  A    between atoms: _217  and  _218
REMARK   88  A    between atoms: _218  and  _219
REMARK   89  A    between atoms: _219  and  _220
REMARK   90  A    between atoms: _220  and  _221
REMARK   91  A    between atoms: _225  and  _227
REMARK   92  A    between atoms: _227  and  _228
REMARK   93  A    between atoms: _231  and  _233
REMARK   94  A    between atoms: _233  and  _234
REMARK   95  A    between atoms: _236  and  _238
REMARK   96  A    between atoms: _238  and  _239
REMARK   97  A    between atoms: _238  and  _241
REMARK   98  A    between atoms: _241  and  _242
REMARK   99  A    between atoms: _247  and  _249
REMARK  100  A    between atoms: _249  and  _250
REMARK  101  A    between atoms: _249  and  _252
REMARK  102  A    between atoms: _252  and  _253
REMARK  103  A    between atoms: _253  and  _254
REMARK  104  A    between atoms: _257  and  _259
REMARK  105  A    between atoms: _259  and  _260
REMARK  106  A    between atoms: _259  and  _262
REMARK  107  A    between atoms: _262  and  _263
REMARK  108  A    between atoms: _263  and  _264
REMARK  109  A    between atoms: _269  and  _271
REMARK  110  A    between atoms: _271  and  _272
REMARK  111  A    between atoms: _271  and  _274
REMARK  112  A    between atoms: _274  and  _275
REMARK  113  A    between atoms: _277  and  _279
REMARK  114  A    between atoms: _279  and  _280
REMARK  115  A    between atoms: _279  and  _282
REMARK  116  A    between atoms: _282  and  _283
REMARK  117  A    between atoms: _289  and  _291
REMARK  118  A    between atoms: _291  and  _292
REMARK  119  A    between atoms: _291  and  _294
REMARK  120  A    between atoms: _294  and  _295
REMARK  121  A    between atoms: _295  and  _296
REMARK  122  A    between atoms: _296  and  _297
REMARK  123  A    between atoms: _306  and  _308
REMARK  124  A    between atoms: _308  and  _309
REMARK  125  A    between atoms: _308  and  _311
REMARK  126  A    between atoms: _314  and  _316
REMARK  127  A    between atoms: _316  and  _317
REMARK  128  A    between atoms: _316  and  _319
REMARK  129  A    between atoms: _319  and  _320
REMARK  130  A    between atoms: _323  and  _325
REMARK  131  A    between atoms: _325  and  _326
REMARK  132  A    between atoms: _325  and  _328
REMARK  133  A    between atoms: _328  and  _329
REMARK  134  A    between atoms: _332  and  _334
REMARK  135  A    between atoms: _334  and  _335
REMARK  136  A    between atoms: _334  and  _337
REMARK  137  A    between atoms: _337  and  _338
REMARK  138  A    between atoms: _338  and  _339
REMARK  139  A    between atoms: _339  and  _340
REMARK  140  A    between atoms: _349  and  _351
REMARK  141  A    between atoms: _351  and  _352
REMARK  142  A    between atoms: _351  and  _354
REMARK  143  A    between atoms: _354  and  _355
REMARK  144  A    between atoms: _358  and  _360
REMARK  145  A    between atoms: _360  and  _361
REMARK  146  A    between atoms: _360  and  _363
REMARK  147  A    between atoms: _363  and  _364
REMARK  148  A    between atoms: _367  and  _369
REMARK  149  A    between atoms: _369  and  _370
REMARK  150  A    between atoms: _369  and  _372
REMARK  151  A    between atoms: _372  and  _373
REMARK  152  A    between atoms: _378  and  _379
REMARK  153  A    between atoms: _381  and  _383
REMARK  154  A    between atoms: _383  and  _384
REMARK  155  A    between atoms: _383  and  _386
REMARK  156  A    between atoms: _386  and  _387
REMARK  157  A    between atoms: _392  and  _393
REMARK  158  A    between atoms: _395  and  _397
REMARK  159  A    between atoms: _397  and  _398
REMARK  160  A    between atoms: _397  and  _400
REMARK  161  A    between atoms: _400  and  _401
REMARK  162  A    between atoms: _404  and  _406
REMARK  163  A    between atoms: _406  and  _407
REMARK  164  A    between atoms: _406  and  _409
REMARK  165  A    between atoms: _409  and  _410
REMARK  166  A    between atoms: _410  and  _411
REMARK  167  A    between atoms: _416  and  _418
REMARK  168  A    between atoms: _418  and  _419
REMARK  169  A    between atoms: _418  and  _421
REMARK  170  A    between atoms: _424  and  _426
REMARK  171  A    between atoms: _426  and  _427
REMARK  172  A    between atoms: _426  and  _429
REMARK  173  A    between atoms: _429  and  _430
REMARK  174  A    between atoms: _433  and  _435
REMARK  175  A    between atoms: _435  and  _436
REMARK  176  A    between atoms: _435  and  _438
REMARK  177  A    between atoms: _438  and  _439
REMARK  178  A    between atoms: _441  and  _443
REMARK  179  A    between atoms: _443  and  _444
REMARK  180  A    between atoms: _446  and  _448
REMARK  181  A    between atoms: _448  and  _449
REMARK  182  A    between atoms: _448  and  _451
REMARK  183  A    between atoms: _451  and  _452
REMARK  184  A    between atoms: _452  and  _753
REMARK  185  A    between atoms: _453  and  _455
REMARK  186  A    between atoms: _455  and  _456
REMARK  187  A    between atoms: _455  and  _458
REMARK  188  A    between atoms: _458  and  _459
REMARK  189  A    between atoms: _464  and  _465
REMARK  190  A    between atoms: _467  and  _469
REMARK  191  A    between atoms: _469  and  _470
REMARK  192  A    between atoms: _469  and  _472
REMARK  193  A    between atoms: _472  and  _473
REMARK  194  A    between atoms: _473  and  _474
REMARK  195  A    between atoms: _479  and  _481
REMARK  196  A    between atoms: _481  and  _482
REMARK  197  A    between atoms: _481  and  _484
REMARK  198  A    between atoms: _484  and  _485
REMARK  199  A    between atoms: _485  and  _486
REMARK  200  A    between atoms: _491  and  _493
REMARK  201  A    between atoms: _493  and  _494
REMARK  202  A    between atoms: _493  and  _496
REMARK  203  A    between atoms: _496  and  _497
REMARK  204  A    between atoms: _502  and  _503
REMARK  205  A    between atoms: _505  and  _507
REMARK  206  A    between atoms: _507  and  _508
REMARK  207  A    between atoms: _511  and  _513
REMARK  208  A    between atoms: _513  and  _514
REMARK  209  A    between atoms: _513  and  _516
REMARK  210  A    between atoms: _516  and  _517
REMARK  211  A    between atoms: _522  and  _523
REMARK  212  A    between atoms: _525  and  _527
REMARK  213  A    between atoms: _527  and  _528
REMARK  214  A    between atoms: _527  and  _530
REMARK  215  A    between atoms: _530  and  _531
REMARK  216  A    between atoms: _536  and  _537
REMARK  217  A    between atoms: _539  and  _541
REMARK  218  A    between atoms: _541  and  _542
REMARK  219  A    between atoms: _541  and  _544
REMARK  220  A    between atoms: _544  and  _545
REMARK  221  A    between atoms: _548  and  _550
REMARK  222  A    between atoms: _550  and  _551
REMARK  223  A    between atoms: _554  and  _556
REMARK  224  A    between atoms: _556  and  _557
REMARK  225  A    between atoms: _560  and  _562
REMARK  226  A    between atoms: _562  and  _563
REMARK  227  A    between atoms: _562  and  _565
REMARK  228  A    between atoms: _565  and  _566
REMARK  229  A    between atoms: _569  and  _571
REMARK  230  A    between atoms: _571  and  _572
REMARK  231  A    between atoms: _571  and  _574
REMARK  232  A    between atoms: _574  and  _575
REMARK  233  A    between atoms: _578  and  _580
REMARK  234  A    between atoms: _580  and  _581
REMARK  235  A    between atoms: _580  and  _583
REMARK  236  A    between atoms: _583  and  _584
REMARK  237  A    between atoms: _587  and  _589
REMARK  238  A    between atoms: _589  and  _590
REMARK  239  A    between atoms: _589  and  _592
REMARK  240  A    between atoms: _592  and  _593
REMARK  241  A    between atoms: _593  and  _594
REMARK  242  A    between atoms: _594  and  _595
REMARK  243  A    between atoms: _595  and  _596
REMARK  244  A    between atoms: _600  and  _602
REMARK  245  A    between atoms: _602  and  _603
REMARK  246  A    between atoms: _602  and  _605
REMARK  247  A    between atoms: _605  and  _606
REMARK  248  A    between atoms: _611  and  _613
REMARK  249  A    between atoms: _613  and  _614
REMARK  250  A    between atoms: _613  and  _616
REMARK  251  A    between atoms: _616  and  _617
REMARK  252  A    between atoms: _617  and  _618
REMARK  253  A    between atoms: _618  and  _619
REMARK  254  A    between atoms: _619  and  _620
REMARK  255  A    between atoms: _624  and  _626
REMARK  256  A    between atoms: _626  and  _627
REMARK  257  A    between atoms: _626  and  _629
REMARK  258  A    between atoms: _629  and  _630
REMARK  259  A    between atoms: _640  and  _642
REMARK  260  A    between atoms: _642  and  _643
REMARK  261  A    between atoms: _646  and  _648
REMARK  262  A    between atoms: _648  and  _649
REMARK  263  A    between atoms: _648  and  _651
REMARK  264  A    between atoms: _651  and  _652
REMARK  265  A    between atoms: _652  and  _653
REMARK  266  A    between atoms: _656  and  _658
REMARK  267  A    between atoms: _658  and  _659
REMARK  268  A    between atoms: _658  and  _661
REMARK  269  A    between atoms: _661  and  _662
REMARK  270  A    between atoms: _662  and  _663
REMARK  271  A    between atoms: _666  and  _668
REMARK  272  A    between atoms: _668  and  _669
REMARK  273  A    between atoms: _668  and  _671
REMARK  274  A    between atoms: _671  and  _672
REMARK  275  A    between atoms: _672  and  _673
REMARK  276  A    between atoms: _673  and  _674
REMARK  277  A    between atoms: _683  and  _685
REMARK  278  A    between atoms: _685  and  _686
REMARK  279  A    between atoms: _685  and  _688
REMARK  280  A    between atoms: _688  and  _689
REMARK  281  A    between atoms: _692  and  _694
REMARK  282  A    between atoms: _694  and  _695
REMARK  283  A    between atoms: _694  and  _697
REMARK  284  A    between atoms: _697  and  _698
REMARK  285  A    between atoms: _698  and  _699
REMARK  286  A    between atoms: _699  and  _700
REMARK  287  A    between atoms: _709  and  _711
REMARK  288  A    between atoms: _711  and  _712
REMARK  289  A    between atoms: _715  and  _717
REMARK  290  A    between atoms: _717  and  _718
REMARK  291  A    between atoms: _717  and  _720
REMARK  292  A    between atoms: _720  and  _721
REMARK  293  A    between atoms: _726  and  _727
REMARK  294  A    between atoms: _729  and  _731
REMARK  295  A    between atoms: _731  and  _732
REMARK  296  A    between atoms: _731  and  _734
REMARK  297  A    between atoms: _734  and  _735
REMARK  298  A    between atoms: _738  and  _740
REMARK  299  A    between atoms: _740  and  _741
REMARK  300  A    between atoms: _740  and  _743
REMARK  301  A    between atoms: _743  and  _744
REMARK  302  A    between atoms: _747  and  _749
REMARK  303  A    between atoms: _749  and  _750
REMARK  304  A    between atoms: _749  and  _752
REMARK  305  A    between atoms: _752  and  _753
REMARK  306  A    between atoms: _754  and  _756
REMARK  307  A    between atoms: _756  and  _757
REMARK  308  A    between atoms: _756  and  _759
REMARK  309  A    between atoms: _762  and  _764
REMARK  310  A    between atoms: _764  and  _765
REMARK  311  A    between atoms: _764  and  _767
REMARK  312  A    between atoms: _767  and  _768
REMARK  313  A    between atoms: _768  and  _769
REMARK  314  A    between atoms: _772  and  _774
REMARK  315  A    between atoms: _774  and  _775
REMARK  316  A    between atoms: _774  and  _777
REMARK  317  A    between atoms: _777  and  _778
REMARK  318  A    between atoms: _788  and  _790
REMARK  319  A    between atoms: _790  and  _791
REMARK  320  A    between atoms: _790  and  _793
REMARK  321  A    between atoms: _793  and  _794
REMARK  322  A    between atoms: _797  and  _799
REMARK  323  A    between atoms: _799  and  _800
REMARK  324  A    between atoms: _799  and  _802
REMARK  325  A    between atoms: _802  and  _803
REMARK  326  A    between atoms: _808  and  _809
REMARK                            x       y       z     vdW  Elec       q    Type
REMARK                         _______ _______ _______ _____ _____    ______ ____
ROOT
ATOM      1  CA  ARG A   4       3.144   8.923   4.318  0.00  0.00    +0.149 C 
ENDROOT
BRANCH   1   3
ATOM      2  C   LEU A   3       2.185   8.740   2.112  0.00  0.00    +0.241 C 
ATOM      3  N   ARG A   4       2.276   9.408   3.255  0.00  0.00    -0.297 N 
ATOM      4  H   ARG A   4       1.726  10.280   3.392  0.00  0.00    +0.150 HD
ATOM      5  O   LEU A   3       2.793   7.686   1.908  0.00  0.00    -0.273 OA
BRANCH   2   6
ATOM      6  CA  LEU A   3       1.274   9.334   1.047  0.00  0.00    +0.149 C 
BRANCH   6   9
ATOM      7  C   ARG A   2      -0.831   9.192   2.234  0.00  0.00    +0.241 C 
ATOM      8  O   ARG A   2      -0.752   7.969   2.309  0.00  0.00    -0.273 OA
ATOM      9  N   LEU A   3       0.078   9.932   1.613  0.00  0.00    -0.297 N 
ATOM     10  H   LEU A   3      -0.068  10.958   1.530  0.00  0.00    +0.150 HD
BRANCH   7  11
ATOM     11  CA  ARG A   2      -2.008   9.943   2.849  0.00  0.00    +0.149 C 
BRANCH  11  14
ATOM     12  C   GLU A   1      -0.691  11.152   4.517  0.00  0.00    +0.238 C 
ATOM     13  O   GLU A   1      -0.230  10.114   5.002  0.00  0.00    -0.274 OA
ATOM     14  N   ARG A   2      -1.578  11.162   3.526  0.00  0.00    -0.297 N 
ATOM     15  H   ARG A   2      -1.980  12.072   3.222  0.00  0.00    +0.150 HD
BRANCH  12  16
ATOM     16  CA  GLU A   1      -0.264  12.521   5.046  0.00  0.00    +0.145 C 
BRANCH  16  17
ATOM     17  N   GLU A   1      -0.007  13.459   3.960  0.00  0.00    -0.238 NA
ATOM     18  H   GLU A   1      -0.638  14.276   3.836  0.00  0.00    +0.142 HD
ENDBRANCH  16  17
BRANCH  16  19
ATOM     19  CB  GLU A   1      -1.327  13.084   6.005  0.00  0.00    +0.038 C 
BRANCH  19  20
ATOM     20  CG  GLU A   1      -0.806  14.145   6.972  0.00  0.00    +0.116 C 
BRANCH  20  21
ATOM     21  CD  GLU A   1      -0.419  15.467   6.298  0.00  0.00    +0.365 C 
ATOM     22  OE2 GLU A   1       0.415  16.198   6.877  0.00  0.00    -0.246 OA
ATOM     23  OE1 GLU A   1      -0.946  15.786   5.205  0.00  0.00    -0.246 OA
ENDBRANCH  20  21
ENDBRANCH  19  20
ENDBRANCH  16  19
ENDBRANCH  12  16
ENDBRANCH  11  14
BRANCH  11  24
ATOM     24  CB  ARG A   2      -3.010  10.290   1.752  0.00  0.00    +0.033 C 
BRANCH  24  25
ATOM     25  CG  ARG A   2      -3.571   9.099   1.004  0.00  0.00    +0.045 C 
BRANCH  25  26
ATOM     26  CD  ARG A   2      -4.491   9.563  -0.136  0.00  0.00    +0.174 C 
BRANCH  26  27
ATOM     27  NE  ARG A   2      -3.745   9.961  -1.334  0.00  0.00    -0.265 N 
ATOM     28  HE  ARG A   2      -3.471  10.960  -1.430  0.00  0.00    +0.259 HD
ATOM     29  CZ  ARG A   2      -3.396   9.119  -2.309  0.00  0.00    +0.342 C 
ATOM     30  NH2 ARG A   2      -3.732   7.834  -2.236  0.00  0.00    -0.292 N 
ATOM     31 HH21 ARG A   2      -4.268   7.482  -1.417  0.00  0.00    +0.255 HD
ATOM     32 HH22 ARG A   2      -3.458   7.181  -2.998  0.00  0.00    +0.255 HD
ATOM     33  NH1 ARG A   2      -2.717   9.562  -3.366  0.00  0.00    -0.292 N 
ATOM     34 HH11 ARG A   2      -2.457  10.567  -3.433  0.00  0.00    +0.255 HD
ATOM     35 HH12 ARG A   2      -2.447   8.903  -4.124  0.00  0.00    +0.255 HD
ENDBRANCH  26  27
ENDBRANCH  25  26
ENDBRANCH  24  25
ENDBRANCH  11  24
ENDBRANCH   7  11
ENDBRANCH   6   9
BRANCH   6  36
ATOM     36  CB  LEU A   3       2.031  10.351   0.211  0.00  0.00    +0.029 C 
BRANCH  36  37
ATOM     37  CG  LEU A   3       1.729  10.108  -1.263  0.00  0.00    +0.002 C 
ATOM     38  CD2 LEU A   3       2.765   9.135  -1.848  0.00  0.00    +0.000 C 
ATOM     39  CD1 LEU A   3       1.687  11.410  -2.008  0.00  0.00    +0.000 C 
ENDBRANCH  36  37
ENDBRANCH   6  36
ENDBRANCH   2   6
ENDBRANCH   1   3
BRANCH   1  40
ATOM     40  C   ARG A   4       2.608   7.603   4.867  0.00  0.00    +0.241 C 
ATOM     41  O   ARG A   4       3.375   6.667   5.133  0.00  0.00    -0.273 OA
ATOM     42  N   ALA A   5       1.288   7.531   5.027  0.00  0.00    -0.297 N 
ATOM     43  H   ALA A   5       0.709   8.372   4.831  0.00  0.00    +0.150 HD
BRANCH  42  44
ATOM     44  CA  ALA A   5       0.632   6.308   5.469  0.00  0.00    +0.149 C 
ATOM     45  CB  ALA A   5      -0.864   6.516   5.584  0.00  0.00    +0.031 C 
BRANCH  44  46
ATOM     46  C   ALA A   5       0.937   5.179   4.486  0.00  0.00    +0.241 C 
ATOM     47  O   ALA A   5       1.233   4.057   4.890  0.00  0.00    -0.273 OA
ATOM     48  N   TYR A   6       0.875   5.476   3.191  0.00  0.00    -0.297 N 
ATOM     49  H   TYR A   6       0.582   6.427   2.890  0.00  0.00    +0.150 HD
BRANCH  48  50
ATOM     50  CA  TYR A   6       1.218   4.466   2.191  0.00  0.00    +0.153 C 
BRANCH  50  51
ATOM     51  C   TYR A   6       2.681   4.057   2.304  0.00  0.00    +0.241 C 
ATOM     52  O   TYR A   6       3.000   2.872   2.373  0.00  0.00    -0.273 OA
ATOM     53  N   LEU A   7       3.566   5.047   2.335  0.00  0.00    -0.298 N 
ATOM     54  H   LEU A   7       3.226   6.029   2.367  0.00  0.00    +0.150 HD
BRANCH  53  55
ATOM     55  CA  LEU A   7       4.996   4.795   2.325  0.00  0.00    +0.137 C 
BRANCH  55  56
ATOM     56  C   LEU A   7       5.460   4.004   3.542  0.00  0.00    +0.227 C 
ATOM     57  O   LEU A   7       6.281   3.095   3.417  0.00  0.00    -0.286 OA
ENDBRANCH  55  56
BRANCH  55  58
ATOM     58  CB  LEU A   7       5.775   6.112   2.191  0.00  0.00    +0.028 C 
BRANCH  58  59
ATOM     59  CG  LEU A   7       5.547   6.821   0.847  0.00  0.00    +0.002 C 
ATOM     60  CD2 LEU A   7       5.953   8.287   0.887  0.00  0.00    +0.000 C 
ATOM     61  CD1 LEU A   7       6.275   6.088  -0.276  0.00  0.00    +0.000 C 
ENDBRANCH  58  59
ENDBRANCH  55  58
ENDBRANCH  53  55
ENDBRANCH  50  51
BRANCH  50  62
ATOM     62  CB  TYR A   6       0.910   4.955   0.774  0.00  0.00    +0.055 C 
BRANCH  62  63
ATOM     63  CG  TYR A   6       1.483   4.061  -0.304  0.00  0.00    -0.020 A 
ATOM     64  CD2 TYR A   6       0.809   2.921  -0.727  0.00  0.00    -0.001 A 
ATOM     65  CE2 TYR A   6       1.342   2.096  -1.724  0.00  0.00    +0.036 A 
ATOM     66  CZ  TYR A   6       2.566   2.410  -2.288  0.00  0.00    +0.134 A 
ATOM     67  CE1 TYR A   6       3.251   3.532  -1.883  0.00  0.00    +0.036 A 
ATOM     68  CD1 TYR A   6       2.704   4.354  -0.892  0.00  0.00    -0.001 A 
BRANCH  66  69
ATOM     69  OH  TYR A   6       3.102   1.612  -3.267  0.00  0.00    -0.506 OA
ATOM     70  HH  TYR A   6       2.492   0.852  -3.443  0.00  0.00    +0.292 HD
ENDBRANCH  66  69
ENDBRANCH  62  63
ENDBRANCH  50  62
ENDBRANCH  48  50
ENDBRANCH  44  46
ENDBRANCH  42  44
ENDBRANCH   1  40
BRANCH   1  71
ATOM     71  CB  ARG A   4       3.283   9.970   5.425  0.00  0.00    +0.033 C 
BRANCH  71  72
ATOM     72  CG  ARG A   4       4.207   9.546   6.548  0.00  0.00    +0.045 C 
BRANCH  72  73
ATOM     73  CD  ARG A   4       4.487  10.701   7.485  0.00  0.00    +0.174 C 
BRANCH  73  74
ATOM     74  NE  ARG A   4       5.450  10.343   8.522  0.00  0.00    -0.265 N 
ATOM     75  CZ  ARG A   4       6.138  11.227   9.240  0.00  0.00    +0.342 C 
ATOM     76  NH2 ARG A   4       6.994  10.812  10.166  0.00  0.00    -0.292 N 
ATOM     77 HH21 ARG A   4       7.531  11.505  10.726  0.00  0.00    +0.255 HD
ATOM     78 HH22 ARG A   4       7.128   9.794  10.331  0.00  0.00    +0.255 HD
ATOM     79  NH1 ARG A   4       5.976  12.528   9.025  0.00  0.00    -0.292 N 
ATOM     80 HH11 ARG A   4       6.514  13.219   9.586  0.00  0.00    +0.255 HD
ATOM     81 HH12 ARG A   4       5.311  12.856   8.295  0.00  0.00    +0.255 HD
ATOM     82  HE  ARG A   4       5.608   9.333   8.712  0.00  0.00    +0.259 HD
ENDBRANCH  73  74
ENDBRANCH  72  73
ENDBRANCH  71  72
ENDBRANCH   1  71
TORSDOF 32
REMARK  Name = ../refined-set-2016/3p9m/3p9m_pocket.pdb
REMARK  326 active torsions:
REMARK  status: ('A' for Active; 'I' for Inactive)
REMARK    1  A    between atoms: _1  and  _3
REMARK    2  A    between atoms: _3  and  _4
REMARK    3  A    between atoms: _3  and  _6
REMARK    4  A    between atoms: _6  and  _7
REMARK    5  A    between atoms: _10  and  _12
REMARK    6  A    between atoms: _12  and  _13
REMARK    7  A    between atoms: _12  and  _15
REMARK    8  A    between atoms: _15  and  _16
REMARK    9  A    between atoms: _16  and  _17
REMARK   10  A    between atoms: _17  and  _18
REMARK   11  A    between atoms: _27  and  _29
REMARK   12  A    between atoms: _29  and  _30
REMARK   13  A    between atoms: _29  and  _32
REMARK   14  A    between atoms: _32  and  _33
REMARK   15  A    between atoms: _38  and  _39
REMARK   16  A    between atoms: _41  and  _43
REMARK   17  A    between atoms: _43  and  _44
REMARK   18  A    between atoms: _43  and  _46
REMARK   19  A    between atoms: _46  and  _47
REMARK   20  A    between atoms: _53  and  _55
REMARK   21  A    between atoms: _55  and  _56
REMARK   22  A    between atoms: _55  and  _58
REMARK   23  A    between atoms: _61  and  _63
REMARK   24  A    between atoms: _63  and  _64
REMARK   25  A    between atoms: _63  and  _66
REMARK   26  A    between atoms: _66  and  _67
REMARK   27  A    between atoms: _70  and  _72
REMARK   28  A    between atoms: _72  and  _73
REMARK   29  A    between atoms: _72  and  _75
REMARK   30  A    between atoms: _75  and  _76
REMARK   31  A    between atoms: _81  and  _82
REMARK   32  A    between atoms: _84  and  _86
REMARK   33  A    between atoms: _86  and  _87
REMARK   34  A    between atoms: _86  and  _89
REMARK   35  A    between atoms: _89  and  _90
REMARK   36  A    between atoms: _90  and  _91
REMARK   37  A    between atoms: _93  and  _95
REMARK   38  A    between atoms: _95  and  _96
REMARK   39  A    between atoms: _95  and  _98
REMARK   40  A    between atoms: _98  and  _99
REMARK   41  A    between atoms: _99  and  _100
REMARK   42  A    between atoms: _103  and  _105
REMARK   43  A    between atoms: _105  and  _106
REMARK   44  A    between atoms: _105  and  _108
REMARK   45  A    between atoms: _111  and  _113
REMARK   46  A    between atoms: _113  and  _114
REMARK   47  A    between atoms: _116  and  _118
REMARK   48  A    between atoms: _118  and  _119
REMARK   49  A    between atoms: _118  and  _121
REMARK   50  A    between atoms: _121  and  _122
REMARK   51  A    between atoms: _128  and  _130
REMARK   52  A    between atoms: _130  and  _131
REMARK   53  A    between atoms: _130  and  _133
REMARK   54  A    between atoms: _136  and  _138
REMARK   55  A    between atoms: _138  and  _139
REMARK   56  A    between atoms: _138  and  _141
REMARK   57  A    between atoms: _141  and  _142
REMARK   58  A    between atoms: _148  and  _150
REMARK   59  A    between atoms: _150  and  _151
REMARK   60  A    between atoms: _150  and  _153
REMARK   61  A    between atoms: _153  and  _154
REMARK   62  A    between atoms: _159  and  _160
REMARK   63  A    between atoms: _162  and  _164
REMARK   64  A    between atoms: _164  and  _165
REMARK   65  A    between atoms: _164  and  _167
REMARK   66  A    between atoms: _167  and  _168
REMARK   67  A    between atoms: _168  and  _169
REMARK   68  A    between atoms: _171  and  _173
REMARK   69  A    between atoms: _173  and  _174
REMARK   70  A    between atoms: _173  and  _176
REMARK   71  A    between atoms: _176  and  _177
REMARK   72  A    between atoms: _182  and  _183
REMARK   73  A    between atoms: _185  and  _187
REMARK   74  A    between atoms: _187  and  _188
REMARK   75  A    between atoms: _187  and  _190
REMARK   76  A    between atoms: _190  and  _191
REMARK   77  A    between atoms: _191  and  _192
REMARK   78  A    between atoms: _192  and  _193
REMARK   79  A    between atoms: _202  and  _204
REMARK   80  A    between atoms: _204  and  _205
REMARK   81  A    between atoms: _204  and  _207
REMARK   82  A    between atoms: _207  and  _208
REMARK   83  A    between atoms: _208  and  _209
REMARK   84  A    between atoms: _212  and  _214
REMARK   85  A    between atoms: _214  and  _215
REMARK   86  A    between atoms: _214  and  _217
REMARK   87  A    between atoms: _217  and  _218
REMARK   88  A    between atoms: _218  and  _219
REMARK   89  A    between atoms: _219  and  _220
REMARK   90  A    between atoms: _220  and  _221
REMARK   91  A    between atoms: _225  and  _227
REMARK   92  A    between atoms: _227  and  _228
REMARK   93  A    between atoms: _231  and  _233
REMARK   94  A    between atoms: _233  and  _234
REMARK   95  A    between atoms: _236  and  _238
REMARK   96  A    between atoms: _238  and  _239
REMARK   97  A    between atoms: _238  and  _241
REMARK   98  A    between atoms: _241  and  _242
REMARK   99  A    between atoms: _247  and  _249
REMARK  100  A    between atoms: _249  and  _250
REMARK  101  A    between atoms: _249  and  _252
REMARK  102  A    between atoms: _252  and  _253
REMARK  103  A    between atoms: _253  and  _254
REMARK  104  A    between atoms: _257  and  _259
REMARK  105  A    between atoms: _259  and  _260
REMARK  106  A    between atoms: _259  and  _262
REMARK  107  A    between atoms: _262  and  _263
REMARK  108  A    between atoms: _263  and  _264
REMARK  109  A    between atoms: _269  and  _271
REMARK  110  A    between atoms: _271  and  _272
REMARK  111  A    between atoms: _271  and  _274
REMARK  112  A    between atoms: _274  and  _275
REMARK  113  A    between atoms: _277  and  _279
REMARK  114  A    between atoms: _279  and  _280
REMARK  115  A    between atoms: _279  and  _282
REMARK  116  A    between atoms: _282  and  _283
REMARK  117  A    between atoms: _289  and  _291
REMARK  118  A    between atoms: _291  and  _292
REMARK  119  A    between atoms: _291  and  _294
REMARK  120  A    between atoms: _294  and  _295
REMARK  121  A    between atoms: _295  and  _296
REMARK  122  A    between atoms: _296  and  _297
REMARK  123  A    between atoms: _306  and  _308
REMARK  124  A    between atoms: _308  and  _309
REMARK  125  A    between atoms: _308  and  _311
REMARK  126  A    between atoms: _314  and  _316
REMARK  127  A    between atoms: _316  and  _317
REMARK  128  A    between atoms: _316  and  _319
REMARK  129  A    between atoms: _319  and  _320
REMARK  130  A    between atoms: _323  and  _325
REMARK  131  A    between atoms: _325  and  _326
REMARK  132  A    between atoms: _325  and  _328
REMARK  133  A    between atoms: _328  and  _329
REMARK  134  A    between atoms: _332  and  _334
REMARK  135  A    between atoms: _334  and  _335
REMARK  136  A    between atoms: _334  and  _337
REMARK  137  A    between atoms: _337  and  _338
REMARK  138  A    between atoms: _338  and  _339
REMARK  139  A    between atoms: _339  and  _340
REMARK  140  A    between atoms: _349  and  _351
REMARK  141  A    between atoms: _351  and  _352
REMARK  142  A    between atoms: _351  and  _354
REMARK  143  A    between atoms: _354  and  _355
REMARK  144  A    between atoms: _358  and  _360
REMARK  145  A    between atoms: _360  and  _361
REMARK  146  A    between atoms: _360  and  _363
REMARK  147  A    between atoms: _363  and  _364
REMARK  148  A    between atoms: _367  and  _369
REMARK  149  A    between atoms: _369  and  _370
REMARK  150  A    between atoms: _369  and  _372
REMARK  151  A    between atoms: _372  and  _373
REMARK  152  A    between atoms: _378  and  _379
REMARK  153  A    between atoms: _381  and  _383
REMARK  154  A    between atoms: _383  and  _384
REMARK  155  A    between atoms: _383  and  _386
REMARK  156  A    between atoms: _386  and  _387
REMARK  157  A    between atoms: _392  and  _393
REMARK  158  A    between atoms: _395  and  _397
REMARK  159  A    between atoms: _397  and  _398
REMARK  160  A    between atoms: _397  and  _400
REMARK  161  A    between atoms: _400  and  _401
REMARK  162  A    between atoms: _404  and  _406
REMARK  163  A    between atoms: _406  and  _407
REMARK  164  A    between atoms: _406  and  _409
REMARK  165  A    between atoms: _409  and  _410
REMARK  166  A    between atoms: _410  and  _411
REMARK  167  A    between atoms: _416  and  _418
REMARK  168  A    between atoms: _418  and  _419
REMARK  169  A    between atoms: _418  and  _421
REMARK  170  A    between atoms: _424  and  _426
REMARK  171  A    between atoms: _426  and  _427
REMARK  172  A    between atoms: _426  and  _429
REMARK  173  A    between atoms: _429  and  _430
REMARK  174  A    between atoms: _433  and  _435
REMARK  175  A    between atoms: _435  and  _436
REMARK  176  A    between atoms: _435  and  _438
REMARK  177  A    between atoms: _438  and  _439
REMARK  178  A    between atoms: _441  and  _443
REMARK  179  A    between atoms: _443  and  _444
REMARK  180  A    between atoms: _446  and  _448
REMARK  181  A    between atoms: _448  and  _449
REMARK  182  A    between atoms: _448  and  _451
REMARK  183  A    between atoms: _451  and  _452
REMARK  184  A    between atoms: _452  and  _753
REMARK  185  A    between atoms: _453  and  _455
REMARK  186  A    between atoms: _455  and  _456
REMARK  187  A    between atoms: _455  and  _458
REMARK  188  A    between atoms: _458  and  _459
REMARK  189  A    between atoms: _464  and  _465
REMARK  190  A    between atoms: _467  and  _469
REMARK  191  A    between atoms: _469  and  _470
REMARK  192  A    between atoms: _469  and  _472
REMARK  193  A    between atoms: _472  and  _473
REMARK  194  A    between atoms: _473  and  _474
REMARK  195  A    between atoms: _479  and  _481
REMARK  196  A    between atoms: _481  and  _482
REMARK  197  A    between atoms: _481  and  _484
REMARK  198  A    between atoms: _484  and  _485
REMARK  199  A    between atoms: _485  and  _486
REMARK  200  A    between atoms: _491  and  _493
REMARK  201  A    between atoms: _493  and  _494
REMARK  202  A    between atoms: _493  and  _496
REMARK  203  A    between atoms: _496  and  _497
REMARK  204  A    between atoms: _502  and  _503
REMARK  205  A    between atoms: _505  and  _507
REMARK  206  A    between atoms: _507  and  _508
REMARK  207  A    between atoms: _511  and  _513
REMARK  208  A    between atoms: _513  and  _514
REMARK  209  A    between atoms: _513  and  _516
REMARK  210  A    between atoms: _516  and  _517
REMARK  211  A    between atoms: _522  and  _523
REMARK  212  A    between atoms: _525  and  _527
REMARK  213  A    between atoms: _527  and  _528
REMARK  214  A    between atoms: _527  and  _530
REMARK  215  A    between atoms: _530  and  _531
REMARK  216  A    between atoms: _536  and  _537
REMARK  217  A    between atoms: _539  and  _541
REMARK  218  A    between atoms: _541  and  _542
REMARK  219  A    between atoms: _541  and  _544
REMARK  220  A    between atoms: _544  and  _545
REMARK  221  A    between atoms: _548  and  _550
REMARK  222  A    between atoms: _550  and  _551
REMARK  223  A    between atoms: _554  and  _556
REMARK  224  A    between atoms: _556  and  _557
REMARK  225  A    between atoms: _560  and  _562
REMARK  226  A    between atoms: _562  and  _563
REMARK  227  A    between atoms: _562  and  _565
REMARK  228  A    between atoms: _565  and  _566
REMARK  229  A    between atoms: _569  and  _571
REMARK  230  A    between atoms: _571  and  _572
REMARK  231  A    between atoms: _571  and  _574
REMARK  232  A    between atoms: _574  and  _575
REMARK  233  A    between atoms: _578  and  _580
REMARK  234  A    between atoms: _580  and  _581
REMARK  235  A    between atoms: _580  and  _583
REMARK  236  A    between atoms: _583  and  _584
REMARK  237  A    between atoms: _587  and  _589
REMARK  238  A    between atoms: _589  and  _590
REMARK  239  A    between atoms: _589  and  _592
REMARK  240  A    between atoms: _592  and  _593
REMARK  241  A    between atoms: _593  and  _594
REMARK  242  A    between atoms: _594  and  _595
REMARK  243  A    between atoms: _595  and  _596
REMARK  244  A    between atoms: _600  and  _602
REMARK  245  A    between atoms: _602  and  _603
REMARK  246  A    between atoms: _602  and  _605
REMARK  247  A    between atoms: _605  and  _606
REMARK  248  A    between atoms: _611  and  _613
REMARK  249  A    between atoms: _613  and  _614
REMARK  250  A    between atoms: _613  and  _616
REMARK  251  A    between atoms: _616  and  _617
REMARK  252  A    between atoms: _617  and  _618
REMARK  253  A    between atoms: _618  and  _619
REMARK  254  A    between atoms: _619  and  _620
REMARK  255  A    between atoms: _624  and  _626
REMARK  256  A    between atoms: _626  and  _627
REMARK  257  A    between atoms: _626  and  _629
REMARK  258  A    between atoms: _629  and  _630
REMARK  259  A    between atoms: _640  and  _642
REMARK  260  A    between atoms: _642  and  _643
REMARK  261  A    between atoms: _646  and  _648
REMARK  262  A    between atoms: _648  and  _649
REMARK  263  A    between atoms: _648  and  _651
REMARK  264  A    between atoms: _651  and  _652
REMARK  265  A    between atoms: _652  and  _653
REMARK  266  A    between atoms: _656  and  _658
REMARK  267  A    between atoms: _658  and  _659
REMARK  268  A    between atoms: _658  and  _661
REMARK  269  A    between atoms: _661  and  _662
REMARK  270  A    between atoms: _662  and  _663
REMARK  271  A    between atoms: _666  and  _668
REMARK  272  A    between atoms: _668  and  _669
REMARK  273  A    between atoms: _668  and  _671
REMARK  274  A    between atoms: _671  and  _672
REMARK  275  A    between atoms: _672  and  _673
REMARK  276  A    between atoms: _673  and  _674
REMARK  277  A    between atoms: _683  and  _685
REMARK  278  A    between atoms: _685  and  _686
REMARK  279  A    between atoms: _685  and  _688
REMARK  280  A    between atoms: _688  and  _689
REMARK  281  A    between atoms: _692  and  _694
REMARK  282  A    between atoms: _694  and  _695
REMARK  283  A    between atoms: _694  and  _697
REMARK  284  A    between atoms: _697  and  _698
REMARK  285  A    between atoms: _698  and  _699
REMARK  286  A    between atoms: _699  and  _700
REMARK  287  A    between atoms: _709  and  _711
REMARK  288  A    between atoms: _711  and  _712
REMARK  289  A    between atoms: _715  and  _717
REMARK  290  A    between atoms: _717  and  _718
REMARK  291  A    between atoms: _717  and  _720
REMARK  292  A    between atoms: _720  and  _721
REMARK  293  A    between atoms: _726  and  _727
REMARK  294  A    between atoms: _729  and  _731
REMARK  295  A    between atoms: _731  and  _732
REMARK  296  A    between atoms: _731  and  _734
REMARK  297  A    between atoms: _734  and  _735
REMARK  298  A    between atoms: _738  and  _740
REMARK  299  A    between atoms: _740  and  _741
REMARK  300  A    between atoms: _740  and  _743
REMARK  301  A    between atoms: _743  and  _744
REMARK  302  A    between atoms: _747  and  _749
REMARK  303  A    between atoms: _749  and  _750
REMARK  304  A    between atoms: _749  and  _752
REMARK  305  A    between atoms: _752  and  _753
REMARK  306  A    between atoms: _754  and  _756
REMARK  307  A    between atoms: _756  and  _757
REMARK  308  A    between atoms: _756  and  _759
REMARK  309  A    between atoms: _762  and  _764
REMARK  310  A    between atoms: _764  and  _765
REMARK  311  A    between atoms: _764  and  _767
REMARK  312  A    between atoms: _767  and  _768
REMARK  313  A    between atoms: _768  and  _769
REMARK  314  A    between atoms: _772  and  _774
REMARK  315  A    between atoms: _774  and  _775
REMARK  316  A    between atoms: _774  and  _777
REMARK  317  A    between atoms: _777  and  _778
REMARK  318  A    between atoms: _788  and  _790
REMARK  319  A    between atoms: _790  and  _791
REMARK  320  A    between atoms: _790  and  _793
REMARK  321  A    between atoms: _793  and  _794
REMARK  322  A    between atoms: _797  and  _799
REMARK  323  A    between atoms: _799  and  _800
REMARK  324  A    between atoms: _799  and  _802
REMARK  325  A    between atoms: _802  and  _803
REMARK  326  A    between atoms: _808  and  _809
REMARK                            x       y       z     vdW  Elec       q    Type
REMARK                         _______ _______ _______ _____ _____    ______ ____
ROOT
ATOM      1  CG  TYR A   1       6.590  -7.752  -3.793  0.00  0.00    -0.020 A 
ATOM      2  CD2 TYR A   1       6.438  -6.372  -3.819  0.00  0.00    -0.001 A 
ATOM      3  CE2 TYR A   1       5.224  -5.787  -4.087  0.00  0.00    +0.036 A 
ATOM      4  CZ  TYR A   1       4.124  -6.569  -4.334  0.00  0.00    +0.134 A 
ATOM      5  CE1 TYR A   1       4.235  -7.949  -4.321  0.00  0.00    +0.036 A 
ATOM      6  CD1 TYR A   1       5.471  -8.536  -4.047  0.00  0.00    -0.001 A 
ENDROOT
BRANCH   4   7
ATOM      7  OH  TYR A   1       2.917  -5.954  -4.599  0.00  0.00    -0.506 OA
ATOM      8  HH  TYR A   1       2.224  -6.643  -4.755  0.00  0.00    +0.292 HD
ENDBRANCH   4   7
BRANCH   1   9
ATOM      9  CB  TYR A   1       7.943  -8.372  -3.488  0.00  0.00    +0.051 C 
BRANCH   9  10
ATOM     10  CA  TYR A   1       7.894  -9.618  -2.602  0.00  0.00    +0.137 C 
BRANCH  10  11
ATOM     11  N   TYR A   1       7.262  -9.337  -1.316  0.00  0.00    -0.239 NA
ATOM     12  H   TYR A   1       7.060  -8.352  -1.052  0.00  0.00    +0.142 HD
ENDBRANCH  10  11
BRANCH  10  13
ATOM     13  C   TYR A   1       9.305 -10.160  -2.389  0.00  0.00    +0.224 C 
ATOM     14  O   TYR A   1       9.759 -11.038  -3.119  0.00  0.00    -0.287 OA
ENDBRANCH  10  13
ENDBRANCH   9  10
ENDBRANCH   1   9
TORSDOF 5
REMARK  Name = ../refined-set-2016/3p9m/3p9m_pocket.pdb
REMARK  326 active torsions:
REMARK  status: ('A' for Active; 'I' for Inactive)
REMARK    1  A    between atoms: _1  and  _3
REMARK    2  A    between atoms: _3  and  _4
REMARK    3  A    between atoms: _3  and  _6
REMARK    4  A    between atoms: _6  and  _7
REMARK    5  A    between atoms: _10  and  _12
REMARK    6  A    between atoms: _12  and  _13
REMARK    7  A    between atoms: _12  and  _15
REMARK    8  A    between atoms: _15  and  _16
REMARK    9  A    between atoms: _16  and  _17
REMARK   10  A    between atoms: _17  and  _18
REMARK   11  A    between atoms: _27  and  _29
REMARK   12  A    between atoms: _29  and  _30
REMARK   13  A    between atoms: _29  and  _32
REMARK   14  A    between atoms: _32  and  _33
REMARK   15  A    between atoms: _38  and  _39
REMARK   16  A    between atoms: _41  and  _43
REMARK   17  A    between atoms: _43  and  _44
REMARK   18  A    between atoms: _43  and  _46
REMARK   19  A    between atoms: _46  and  _47
REMARK   20  A    between atoms: _53  and  _55
REMARK   21  A    between atoms: _55  and  _56
REMARK   22  A    between atoms: _55  and  _58
REMARK   23  A    between atoms: _61  and  _63
REMARK   24  A    between atoms: _63  and  _64
REMARK   25  A    between atoms: _63  and  _66
REMARK   26  A    between atoms: _66  and  _67
REMARK   27  A    between atoms: _70  and  _72
REMARK   28  A    between atoms: _72  and  _73
REMARK   29  A    between atoms: _72  and  _75
REMARK   30  A    between atoms: _75  and  _76
REMARK   31  A    between atoms: _81  and  _82
REMARK   32  A    between atoms: _84  and  _86
REMARK   33  A    between atoms: _86  and  _87
REMARK   34  A    between atoms: _86  and  _89
REMARK   35  A    between atoms: _89  and  _90
REMARK   36  A    between atoms: _90  and  _91
REMARK   37  A    between atoms: _93  and  _95
REMARK   38  A    between atoms: _95  and  _96
REMARK   39  A    between atoms: _95  and  _98
REMARK   40  A    between atoms: _98  and  _99
REMARK   41  A    between atoms: _99  and  _100
REMARK   42  A    between atoms: _103  and  _105
REMARK   43  A    between atoms: _105  and  _106
REMARK   44  A    between atoms: _105  and  _108
REMARK   45  A    between atoms: _111  and  _113
REMARK   46  A    between atoms: _113  and  _114
REMARK   47  A    between atoms: _116  and  _118
REMARK   48  A    between atoms: _118  and  _119
REMARK   49  A    between atoms: _118  and  _121
REMARK   50  A    between atoms: _121  and  _122
REMARK   51  A    between atoms: _128  and  _130
REMARK   52  A    between atoms: _130  and  _131
REMARK   53  A    between atoms: _130  and  _133
REMARK   54  A    between atoms: _136  and  _138
REMARK   55  A    between atoms: _138  and  _139
REMARK   56  A    between atoms: _138  and  _141
REMARK   57  A    between atoms: _141  and  _142
REMARK   58  A    between atoms: _148  and  _150
REMARK   59  A    between atoms: _150  and  _151
REMARK   60  A    between atoms: _150  and  _153
REMARK   61  A    between atoms: _153  and  _154
REMARK   62  A    between atoms: _159  and  _160
REMARK   63  A    between atoms: _162  and  _164
REMARK   64  A    between atoms: _164  and  _165
REMARK   65  A    between atoms: _164  and  _167
REMARK   66  A    between atoms: _167  and  _168
REMARK   67  A    between atoms: _168  and  _169
REMARK   68  A    between atoms: _171  and  _173
REMARK   69  A    between atoms: _173  and  _174
REMARK   70  A    between atoms: _173  and  _176
REMARK   71  A    between atoms: _176  and  _177
REMARK   72  A    between atoms: _182  and  _183
REMARK   73  A    between atoms: _185  and  _187
REMARK   74  A    between atoms: _187  and  _188
REMARK   75  A    between atoms: _187  and  _190
REMARK   76  A    between atoms: _190  and  _191
REMARK   77  A    between atoms: _191  and  _192
REMARK   78  A    between atoms: _192  and  _193
REMARK   79  A    between atoms: _202  and  _204
REMARK   80  A    between atoms: _204  and  _205
REMARK   81  A    between atoms: _204  and  _207
REMARK   82  A    between atoms: _207  and  _208
REMARK   83  A    between atoms: _208  and  _209
REMARK   84  A    between atoms: _212  and  _214
REMARK   85  A    between atoms: _214  and  _215
REMARK   86  A    between atoms: _214  and  _217
REMARK   87  A    between atoms: _217  and  _218
REMARK   88  A    between atoms: _218  and  _219
REMARK   89  A    between atoms: _219  and  _220
REMARK   90  A    between atoms: _220  and  _221
REMARK   91  A    between atoms: _225  and  _227
REMARK   92  A    between atoms: _227  and  _228
REMARK   93  A    between atoms: _231  and  _233
REMARK   94  A    between atoms: _233  and  _234
REMARK   95  A    between atoms: _236  and  _238
REMARK   96  A    between atoms: _238  and  _239
REMARK   97  A    between atoms: _238  and  _241
REMARK   98  A    between atoms: _241  and  _242
REMARK   99  A    between atoms: _247  and  _249
REMARK  100  A    between atoms: _249  and  _250
REMARK  101  A    between atoms: _249  and  _252
REMARK  102  A    between atoms: _252  and  _253
REMARK  103  A    between atoms: _253  and  _254
REMARK  104  A    between atoms: _257  and  _259
REMARK  105  A    between atoms: _259  and  _260
REMARK  106  A    between atoms: _259  and  _262
REMARK  107  A    between atoms: _262  and  _263
REMARK  108  A    between atoms: _263  and  _264
REMARK  109  A    between atoms: _269  and  _271
REMARK  110  A    between atoms: _271  and  _272
REMARK  111  A    between atoms: _271  and  _274
REMARK  112  A    between atoms: _274  and  _275
REMARK  113  A    between atoms: _277  and  _279
REMARK  114  A    between atoms: _279  and  _280
REMARK  115  A    between atoms: _279  and  _282
REMARK  116  A    between atoms: _282  and  _283
REMARK  117  A    between atoms: _289  and  _291
REMARK  118  A    between atoms: _291  and  _292
REMARK  119  A    between atoms: _291  and  _294
REMARK  120  A    between atoms: _294  and  _295
REMARK  121  A    between atoms: _295  and  _296
REMARK  122  A    between atoms: _296  and  _297
REMARK  123  A    between atoms: _306  and  _308
REMARK  124  A    between atoms: _308  and  _309
REMARK  125  A    between atoms: _308  and  _311
REMARK  126  A    between atoms: _314  and  _316
REMARK  127  A    between atoms: _316  and  _317
REMARK  128  A    between atoms: _316  and  _319
REMARK  129  A    between atoms: _319  and  _320
REMARK  130  A    between atoms: _323  and  _325
REMARK  131  A    between atoms: _325  and  _326
REMARK  132  A    between atoms: _325  and  _328
REMARK  133  A    between atoms: _328  and  _329
REMARK  134  A    between atoms: _332  and  _334
REMARK  135  A    between atoms: _334  and  _335
REMARK  136  A    between atoms: _334  and  _337
REMARK  137  A    between atoms: _337  and  _338
REMARK  138  A    between atoms: _338  and  _339
REMARK  139  A    between atoms: _339  and  _340
REMARK  140  A    between atoms: _349  and  _351
REMARK  141  A    between atoms: _351  and  _352
REMARK  142  A    between atoms: _351  and  _354
REMARK  143  A    between atoms: _354  and  _355
REMARK  144  A    between atoms: _358  and  _360
REMARK  145  A    between atoms: _360  and  _361
REMARK  146  A    between atoms: _360  and  _363
REMARK  147  A    between atoms: _363  and  _364
REMARK  148  A    between atoms: _367  and  _369
REMARK  149  A    between atoms: _369  and  _370
REMARK  150  A    between atoms: _369  and  _372
REMARK  151  A    between atoms: _372  and  _373
REMARK  152  A    between atoms: _378  and  _379
REMARK  153  A    between atoms: _381  and  _383
REMARK  154  A    between atoms: _383  and  _384
REMARK  155  A    between atoms: _383  and  _386
REMARK  156  A    between atoms: _386  and  _387
REMARK  157  A    between atoms: _392  and  _393
REMARK  158  A    between atoms: _395  and  _397
REMARK  159  A    between atoms: _397  and  _398
REMARK  160  A    between atoms: _397  and  _400
REMARK  161  A    between atoms: _400  and  _401
REMARK  162  A    between atoms: _404  and  _406
REMARK  163  A    between atoms: _406  and  _407
REMARK  164  A    between atoms: _406  and  _409
REMARK  165  A    between atoms: _409  and  _410
REMARK  166  A    between atoms: _410  and  _411
REMARK  167  A    between atoms: _416  and  _418
REMARK  168  A    between atoms: _418  and  _419
REMARK  169  A    between atoms: _418  and  _421
REMARK  170  A    between atoms: _424  and  _426
REMARK  171  A    between atoms: _426  and  _427
REMARK  172  A    between atoms: _426  and  _429
REMARK  173  A    between atoms: _429  and  _430
REMARK  174  A    between atoms: _433  and  _435
REMARK  175  A    between atoms: _435  and  _436
REMARK  176  A    between atoms: _435  and  _438
REMARK  177  A    between atoms: _438  and  _439
REMARK  178  A    between atoms: _441  and  _443
REMARK  179  A    between atoms: _443  and  _444
REMARK  180  A    between atoms: _446  and  _448
REMARK  181  A    between atoms: _448  and  _449
REMARK  182  A    between atoms: _448  and  _451
REMARK  183  A    between atoms: _451  and  _452
REMARK  184  A    between atoms: _452  and  _753
REMARK  185  A    between atoms: _453  and  _455
REMARK  186  A    between atoms: _455  and  _456
REMARK  187  A    between atoms: _455  and  _458
REMARK  188  A    between atoms: _458  and  _459
REMARK  189  A    between atoms: _464  and  _465
REMARK  190  A    between atoms: _467  and  _469
REMARK  191  A    between atoms: _469  and  _470
REMARK  192  A    between atoms: _469  and  _472
REMARK  193  A    between atoms: _472  and  _473
REMARK  194  A    between atoms: _473  and  _474
REMARK  195  A    between atoms: _479  and  _481
REMARK  196  A    between atoms: _481  and  _482
REMARK  197  A    between atoms: _481  and  _484
REMARK  198  A    between atoms: _484  and  _485
REMARK  199  A    between atoms: _485  and  _486
REMARK  200  A    between atoms: _491  and  _493
REMARK  201  A    between atoms: _493  and  _494
REMARK  202  A    between atoms: _493  and  _496
REMARK  203  A    between atoms: _496  and  _497
REMARK  204  A    between atoms: _502  and  _503
REMARK  205  A    between atoms: _505  and  _507
REMARK  206  A    between atoms: _507  and  _508
REMARK  207  A    between atoms: _511  and  _513
REMARK  208  A    between atoms: _513  and  _514
REMARK  209  A    between atoms: _513  and  _516
REMARK  210  A    between atoms: _516  and  _517
REMARK  211  A    between atoms: _522  and  _523
REMARK  212  A    between atoms: _525  and  _527
REMARK  213  A    between atoms: _527  and  _528
REMARK  214  A    between atoms: _527  and  _530
REMARK  215  A    between atoms: _530  and  _531
REMARK  216  A    between atoms: _536  and  _537
REMARK  217  A    between atoms: _539  and  _541
REMARK  218  A    between atoms: _541  and  _542
REMARK  219  A    between atoms: _541  and  _544
REMARK  220  A    between atoms: _544  and  _545
REMARK  221  A    between atoms: _548  and  _550
REMARK  222  A    between atoms: _550  and  _551
REMARK  223  A    between atoms: _554  and  _556
REMARK  224  A    between atoms: _556  and  _557
REMARK  225  A    between atoms: _560  and  _562
REMARK  226  A    between atoms: _562  and  _563
REMARK  227  A    between atoms: _562  and  _565
REMARK  228  A    between atoms: _565  and  _566
REMARK  229  A    between atoms: _569  and  _571
REMARK  230  A    between atoms: _571  and  _572
REMARK  231  A    between atoms: _571  and  _574
REMARK  232  A    between atoms: _574  and  _575
REMARK  233  A    between atoms: _578  and  _580
REMARK  234  A    between atoms: _580  and  _581
REMARK  235  A    between atoms: _580  and  _583
REMARK  236  A    between atoms: _583  and  _584
REMARK  237  A    between atoms: _587  and  _589
REMARK  238  A    between atoms: _589  and  _590
REMARK  239  A    between atoms: _589  and  _592
REMARK  240  A    between atoms: _592  and  _593
REMARK  241  A    between atoms: _593  and  _594
REMARK  242  A    between atoms: _594  and  _595
REMARK  243  A    between atoms: _595  and  _596
REMARK  244  A    between atoms: _600  and  _602
REMARK  245  A    between atoms: _602  and  _603
REMARK  246  A    between atoms: _602  and  _605
REMARK  247  A    between atoms: _605  and  _606
REMARK  248  A    between atoms: _611  and  _613
REMARK  249  A    between atoms: _613  and  _614
REMARK  250  A    between atoms: _613  and  _616
REMARK  251  A    between atoms: _616  and  _617
REMARK  252  A    between atoms: _617  and  _618
REMARK  253  A    between atoms: _618  and  _619
REMARK  254  A    between atoms: _619  and  _620
REMARK  255  A    between atoms: _624  and  _626
REMARK  256  A    between atoms: _626  and  _627
REMARK  257  A    between atoms: _626  and  _629
REMARK  258  A    between atoms: _629  and  _630
REMARK  259  A    between atoms: _640  and  _642
REMARK  260  A    between atoms: _642  and  _643
REMARK  261  A    between atoms: _646  and  _648
REMARK  262  A    between atoms: _648  and  _649
REMARK  263  A    between atoms: _648  and  _651
REMARK  264  A    between atoms: _651  and  _652
REMARK  265  A    between atoms: _652  and  _653
REMARK  266  A    between atoms: _656  and  _658
REMARK  267  A    between atoms: _658  and  _659
REMARK  268  A    between atoms: _658  and  _661
REMARK  269  A    between atoms: _661  and  _662
REMARK  270  A    between atoms: _662  and  _663
REMARK  271  A    between atoms: _666  and  _668
REMARK  272  A    between atoms: _668  and  _669
REMARK  273  A    between atoms: _668  and  _671
REMARK  274  A    between atoms: _671  and  _672
REMARK  275  A    between atoms: _672  and  _673
REMARK  276  A    between atoms: _673  and  _674
REMARK  277  A    between atoms: _683  and  _685
REMARK  278  A    between atoms: _685  and  _686
REMARK  279  A    between atoms: _685  and  _688
REMARK  280  A    between atoms: _688  and  _689
REMARK  281  A    between atoms: _692  and  _694
REMARK  282  A    between atoms: _694  and  _695
REMARK  283  A    between atoms: _694  and  _697
REMARK  284  A    between atoms: _697  and  _698
REMARK  285  A    between atoms: _698  and  _699
REMARK  286  A    between atoms: _699  and  _700
REMARK  287  A    between atoms: _709  and  _711
REMARK  288  A    between atoms: _711  and  _712
REMARK  289  A    between atoms: _715  and  _717
REMARK  290  A    between atoms: _717  and  _718
REMARK  291  A    between atoms: _717  and  _720
REMARK  292  A    between atoms: _720  and  _721
REMARK  293  A    between atoms: _726  and  _727
REMARK  294  A    between atoms: _729  and  _731
REMARK  295  A    between atoms: _731  and  _732
REMARK  296  A    between atoms: _731  and  _734
REMARK  297  A    between atoms: _734  and  _735
REMARK  298  A    between atoms: _738  and  _740
REMARK  299  A    between atoms: _740  and  _741
REMARK  300  A    between atoms: _740  and  _743
REMARK  301  A    between atoms: _743  and  _744
REMARK  302  A    between atoms: _747  and  _749
REMARK  303  A    between atoms: _749  and  _750
REMARK  304  A    between atoms: _749  and  _752
REMARK  305  A    between atoms: _752  and  _753
REMARK  306  A    between atoms: _754  and  _756
REMARK  307  A    between atoms: _756  and  _757
REMARK  308  A    between atoms: _756  and  _759
REMARK  309  A    between atoms: _762  and  _764
REMARK  310  A    between atoms: _764  and  _765
REMARK  311  A    between atoms: _764  and  _767
REMARK  312  A    between atoms: _767  and  _768
REMARK  313  A    between atoms: _768  and  _769
REMARK  314  A    between atoms: _772  and  _774
REMARK  315  A    between atoms: _774  and  _775
REMARK  316  A    between atoms: _774  and  _777
REMARK  317  A    between atoms: _777  and  _778
REMARK  318  A    between atoms: _788  and  _790
REMARK  319  A    between atoms: _790  and  _791
REMARK  320  A    between atoms: _790  and  _793
REMARK  321  A    between atoms: _793  and  _794
REMARK  322  A    between atoms: _797  and  _799
REMARK  323  A    between atoms: _799  and  _800
REMARK  324  A    between atoms: _799  and  _802
REMARK  325  A    between atoms: _802  and  _803
REMARK  326  A    between atoms: _808  and  _809
REMARK                            x       y       z     vdW  Elec       q    Type
REMARK                         _______ _______ _______ _____ _____    ______ ____
ROOT
ATOM      1  O   HOH     1      -9.532  18.231 -15.633  0.00  0.00    +0.000 OA
ENDROOT
TORSDOF 0
REMARK  Name = ../refined-set-2016/3p9m/3p9m_pocket.pdb
REMARK  326 active torsions:
REMARK  status: ('A' for Active; 'I' for Inactive)
REMARK    1  A    between atoms: _1  and  _3
REMARK    2  A    between atoms: _3  and  _4
REMARK    3  A    between atoms: _3  and  _6
REMARK    4  A    between atoms: _6  and  _7
REMARK    5  A    between atoms: _10  and  _12
REMARK    6  A    between atoms: _12  and  _13
REMARK    7  A    between atoms: _12  and  _15
REMARK    8  A    between atoms: _15  and  _16
REMARK    9  A    between atoms: _16  and  _17
REMARK   10  A    between atoms: _17  and  _18
REMARK   11  A    between atoms: _27  and  _29
REMARK   12  A    between atoms: _29  and  _30
REMARK   13  A    between atoms: _29  and  _32
REMARK   14  A    between atoms: _32  and  _33
REMARK   15  A    between atoms: _38  and  _39
REMARK   16  A    between atoms: _41  and  _43
REMARK   17  A    between atoms: _43  and  _44
REMARK   18  A    between atoms: _43  and  _46
REMARK   19  A    between atoms: _46  and  _47
REMARK   20  A    between atoms: _53  and  _55
REMARK   21  A    between atoms: _55  and  _56
REMARK   22  A    between atoms: _55  and  _58
REMARK   23  A    between atoms: _61  and  _63
REMARK   24  A    between atoms: _63  and  _64
REMARK   25  A    between atoms: _63  and  _66
REMARK   26  A    between atoms: _66  and  _67
REMARK   27  A    between atoms: _70  and  _72
REMARK   28  A    between atoms: _72  and  _73
REMARK   29  A    between atoms: _72  and  _75
REMARK   30  A    between atoms: _75  and  _76
REMARK   31  A    between atoms: _81  and  _82
REMARK   32  A    between atoms: _84  and  _86
REMARK   33  A    between atoms: _86  and  _87
REMARK   34  A    between atoms: _86  and  _89
REMARK   35  A    between atoms: _89  and  _90
REMARK   36  A    between atoms: _90  and  _91
REMARK   37  A    between atoms: _93  and  _95
REMARK   38  A    between atoms: _95  and  _96
REMARK   39  A    between atoms: _95  and  _98
REMARK   40  A    between atoms: _98  and  _99
REMARK   41  A    between atoms: _99  and  _100
REMARK   42  A    between atoms: _103  and  _105
REMARK   43  A    between atoms: _105  and  _106
REMARK   44  A    between atoms: _105  and  _108
REMARK   45  A    between atoms: _111  and  _113
REMARK   46  A    between atoms: _113  and  _114
REMARK   47  A    between atoms: _116  and  _118
REMARK   48  A    between atoms: _118  and  _119
REMARK   49  A    between atoms: _118  and  _121
REMARK   50  A    between atoms: _121  and  _122
REMARK   51  A    between atoms: _128  and  _130
REMARK   52  A    between atoms: _130  and  _131
REMARK   53  A    between atoms: _130  and  _133
REMARK   54  A    between atoms: _136  and  _138
REMARK   55  A    between atoms: _138  and  _139
REMARK   56  A    between atoms: _138  and  _141
REMARK   57  A    between atoms: _141  and  _142
REMARK   58  A    between atoms: _148  and  _150
REMARK   59  A    between atoms: _150  and  _151
REMARK   60  A    between atoms: _150  and  _153
REMARK   61  A    between atoms: _153  and  _154
REMARK   62  A    between atoms: _159  and  _160
REMARK   63  A    between atoms: _162  and  _164
REMARK   64  A    between atoms: _164  and  _165
REMARK   65  A    between atoms: _164  and  _167
REMARK   66  A    between atoms: _167  and  _168
REMARK   67  A    between atoms: _168  and  _169
REMARK   68  A    between atoms: _171  and  _173
REMARK   69  A    between atoms: _173  and  _174
REMARK   70  A    between atoms: _173  and  _176
REMARK   71  A    between atoms: _176  and  _177
REMARK   72  A    between atoms: _182  and  _183
REMARK   73  A    between atoms: _185  and  _187
REMARK   74  A    between atoms: _187  and  _188
REMARK   75  A    between atoms: _187  and  _190
REMARK   76  A    between atoms: _190  and  _191
REMARK   77  A    between atoms: _191  and  _192
REMARK   78  A    between atoms: _192  and  _193
REMARK   79  A    between atoms: _202  and  _204
REMARK   80  A    between atoms: _204  and  _205
REMARK   81  A    between atoms: _204  and  _207
REMARK   82  A    between atoms: _207  and  _208
REMARK   83  A    between atoms: _208  and  _209
REMARK   84  A    between atoms: _212  and  _214
REMARK   85  A    between atoms: _214  and  _215
REMARK   86  A    between atoms: _214  and  _217
REMARK   87  A    between atoms: _217  and  _218
REMARK   88  A    between atoms: _218  and  _219
REMARK   89  A    between atoms: _219  and  _220
REMARK   90  A    between atoms: _220  and  _221
REMARK   91  A    between atoms: _225  and  _227
REMARK   92  A    between atoms: _227  and  _228
REMARK   93  A    between atoms: _231  and  _233
REMARK   94  A    between atoms: _233  and  _234
REMARK   95  A    between atoms: _236  and  _238
REMARK   96  A    between atoms: _238  and  _239
REMARK   97  A    between atoms: _238  and  _241
REMARK   98  A    between atoms: _241  and  _242
REMARK   99  A    between atoms: _247  and  _249
REMARK  100  A    between atoms: _249  and  _250
REMARK  101  A    between atoms: _249  and  _252
REMARK  102  A    between atoms: _252  and  _253
REMARK  103  A    between atoms: _253  and  _254
REMARK  104  A    between atoms: _257  and  _259
REMARK  105  A    between atoms: _259  and  _260
REMARK  106  A    between atoms: _259  and  _262
REMARK  107  A    between atoms: _262  and  _263
REMARK  108  A    between atoms: _263  and  _264
REMARK  109  A    between atoms: _269  and  _271
REMARK  110  A    between atoms: _271  and  _272
REMARK  111  A    between atoms: _271  and  _274
REMARK  112  A    between atoms: _274  and  _275
REMARK  113  A    between atoms: _277  and  _279
REMARK  114  A    between atoms: _279  and  _280
REMARK  115  A    between atoms: _279  and  _282
REMARK  116  A    between atoms: _282  and  _283
REMARK  117  A    between atoms: _289  and  _291
REMARK  118  A    between atoms: _291  and  _292
REMARK  119  A    between atoms: _291  and  _294
REMARK  120  A    between atoms: _294  and  _295
REMARK  121  A    between atoms: _295  and  _296
REMARK  122  A    between atoms: _296  and  _297
REMARK  123  A    between atoms: _306  and  _308
REMARK  124  A    between atoms: _308  and  _309
REMARK  125  A    between atoms: _308  and  _311
REMARK  126  A    between atoms: _314  and  _316
REMARK  127  A    between atoms: _316  and  _317
REMARK  128  A    between atoms: _316  and  _319
REMARK  129  A    between atoms: _319  and  _320
REMARK  130  A    between atoms: _323  and  _325
REMARK  131  A    between atoms: _325  and  _326
REMARK  132  A    between atoms: _325  and  _328
REMARK  133  A    between atoms: _328  and  _329
REMARK  134  A    between atoms: _332  and  _334
REMARK  135  A    between atoms: _334  and  _335
REMARK  136  A    between atoms: _334  and  _337
REMARK  137  A    between atoms: _337  and  _338
REMARK  138  A    between atoms: _338  and  _339
REMARK  139  A    between atoms: _339  and  _340
REMARK  140  A    between atoms: _349  and  _351
REMARK  141  A    between atoms: _351  and  _352
REMARK  142  A    between atoms: _351  and  _354
REMARK  143  A    between atoms: _354  and  _355
REMARK  144  A    between atoms: _358  and  _360
REMARK  145  A    between atoms: _360  and  _361
REMARK  146  A    between atoms: _360  and  _363
REMARK  147  A    between atoms: _363  and  _364
REMARK  148  A    between atoms: _367  and  _369
REMARK  149  A    between atoms: _369  and  _370
REMARK  150  A    between atoms: _369  and  _372
REMARK  151  A    between atoms: _372  and  _373
REMARK  152  A    between atoms: _378  and  _379
REMARK  153  A    between atoms: _381  and  _383
REMARK  154  A    between atoms: _383  and  _384
REMARK  155  A    between atoms: _383  and  _386
REMARK  156  A    between atoms: _386  and  _387
REMARK  157  A    between atoms: _392  and  _393
REMARK  158  A    between atoms: _395  and  _397
REMARK  159  A    between atoms: _397  and  _398
REMARK  160  A    between atoms: _397  and  _400
REMARK  161  A    between atoms: _400  and  _401
REMARK  162  A    between atoms: _404  and  _406
REMARK  163  A    between atoms: _406  and  _407
REMARK  164  A    between atoms: _406  and  _409
REMARK  165  A    between atoms: _409  and  _410
REMARK  166  A    between atoms: _410  and  _411
REMARK  167  A    between atoms: _416  and  _418
REMARK  168  A    between atoms: _418  and  _419
REMARK  169  A    between atoms: _418  and  _421
REMARK  170  A    between atoms: _424  and  _426
REMARK  171  A    between atoms: _426  and  _427
REMARK  172  A    between atoms: _426  and  _429
REMARK  173  A    between atoms: _429  and  _430
REMARK  174  A    between atoms: _433  and  _435
REMARK  175  A    between atoms: _435  and  _436
REMARK  176  A    between atoms: _435  and  _438
REMARK  177  A    between atoms: _438  and  _439
REMARK  178  A    between atoms: _441  and  _443
REMARK  179  A    between atoms: _443  and  _444
REMARK  180  A    between atoms: _446  and  _448
REMARK  181  A    between atoms: _448  and  _449
REMARK  182  A    between atoms: _448  and  _451
REMARK  183  A    between atoms: _451  and  _452
REMARK  184  A    between atoms: _452  and  _753
REMARK  185  A    between atoms: _453  and  _455
REMARK  186  A    between atoms: _455  and  _456
REMARK  187  A    between atoms: _455  and  _458
REMARK  188  A    between atoms: _458  and  _459
REMARK  189  A    between atoms: _464  and  _465
REMARK  190  A    between atoms: _467  and  _469
REMARK  191  A    between atoms: _469  and  _470
REMARK  192  A    between atoms: _469  and  _472
REMARK  193  A    between atoms: _472  and  _473
REMARK  194  A    between atoms: _473  and  _474
REMARK  195  A    between atoms: _479  and  _481
REMARK  196  A    between atoms: _481  and  _482
REMARK  197  A    between atoms: _481  and  _484
REMARK  198  A    between atoms: _484  and  _485
REMARK  199  A    between atoms: _485  and  _486
REMARK  200  A    between atoms: _491  and  _493
REMARK  201  A    between atoms: _493  and  _494
REMARK  202  A    between atoms: _493  and  _496
REMARK  203  A    between atoms: _496  and  _497
REMARK  204  A    between atoms: _502  and  _503
REMARK  205  A    between atoms: _505  and  _507
REMARK  206  A    between atoms: _507  and  _508
REMARK  207  A    between atoms: _511  and  _513
REMARK  208  A    between atoms: _513  and  _514
REMARK  209  A    between atoms: _513  and  _516
REMARK  210  A    between atoms: _516  and  _517
REMARK  211  A    between atoms: _522  and  _523
REMARK  212  A    between atoms: _525  and  _527
REMARK  213  A    between atoms: _527  and  _528
REMARK  214  A    between atoms: _527  and  _530
REMARK  215  A    between atoms: _530  and  _531
REMARK  216  A    between atoms: _536  and  _537
REMARK  217  A    between atoms: _539  and  _541
REMARK  218  A    between atoms: _541  and  _542
REMARK  219  A    between atoms: _541  and  _544
REMARK  220  A    between atoms: _544  and  _545
REMARK  221  A    between atoms: _548  and  _550
REMARK  222  A    between atoms: _550  and  _551
REMARK  223  A    between atoms: _554  and  _556
REMARK  224  A    between atoms: _556  and  _557
REMARK  225  A    between atoms: _560  and  _562
REMARK  226  A    between atoms: _562  and  _563
REMARK  227  A    between atoms: _562  and  _565
REMARK  228  A    between atoms: _565  and  _566
REMARK  229  A    between atoms: _569  and  _571
REMARK  230  A    between atoms: _571  and  _572
REMARK  231  A    between atoms: _571  and  _574
REMARK  232  A    between atoms: _574  and  _575
REMARK  233  A    between atoms: _578  and  _580
REMARK  234  A    between atoms: _580  and  _581
REMARK  235  A    between atoms: _580  and  _583
REMARK  236  A    between atoms: _583  and  _584
REMARK  237  A    between atoms: _587  and  _589
REMARK  238  A    between atoms: _589  and  _590
REMARK  239  A    between atoms: _589  and  _592
REMARK  240  A    between atoms: _592  and  _593
REMARK  241  A    between atoms: _593  and  _594
REMARK  242  A    between atoms: _594  and  _595
REMARK  243  A    between atoms: _595  and  _596
REMARK  244  A    between atoms: _600  and  _602
REMARK  245  A    between atoms: _602  and  _603
REMARK  246  A    between atoms: _602  and  _605
REMARK  247  A    between atoms: _605  and  _606
REMARK  248  A    between atoms: _611  and  _613
REMARK  249  A    between atoms: _613  and  _614
REMARK  250  A    between atoms: _613  and  _616
REMARK  251  A    between atoms: _616  and  _617
REMARK  252  A    between atoms: _617  and  _618
REMARK  253  A    between atoms: _618  and  _619
REMARK  254  A    between atoms: _619  and  _620
REMARK  255  A    between atoms: _624  and  _626
REMARK  256  A    between atoms: _626  and  _627
REMARK  257  A    between atoms: _626  and  _629
REMARK  258  A    between atoms: _629  and  _630
REMARK  259  A    between atoms: _640  and  _642
REMARK  260  A    between atoms: _642  and  _643
REMARK  261  A    between atoms: _646  and  _648
REMARK  262  A    between atoms: _648  and  _649
REMARK  263  A    between atoms: _648  and  _651
REMARK  264  A    between atoms: _651  and  _652
REMARK  265  A    between atoms: _652  and  _653
REMARK  266  A    between atoms: _656  and  _658
REMARK  267  A    between atoms: _658  and  _659
REMARK  268  A    between atoms: _658  and  _661
REMARK  269  A    between atoms: _661  and  _662
REMARK  270  A    between atoms: _662  and  _663
REMARK  271  A    between atoms: _666  and  _668
REMARK  272  A    between atoms: _668  and  _669
REMARK  273  A    between atoms: _668  and  _671
REMARK  274  A    between atoms: _671  and  _672
REMARK  275  A    between atoms: _672  and  _673
REMARK  276  A    between atoms: _673  and  _674
REMARK  277  A    between atoms: _683  and  _685
REMARK  278  A    between atoms: _685  and  _686
REMARK  279  A    between atoms: _685  and  _688
REMARK  280  A    between atoms: _688  and  _689
REMARK  281  A    between atoms: _692  and  _694
REMARK  282  A    between atoms: _694  and  _695
REMARK  283  A    between atoms: _694  and  _697
REMARK  284  A    between atoms: _697  and  _698
REMARK  285  A    between atoms: _698  and  _699
REMARK  286  A    between atoms: _699  and  _700
REMARK  287  A    between atoms: _709  and  _711
REMARK  288  A    between atoms: _711  and  _712
REMARK  289  A    between atoms: _715  and  _717
REMARK  290  A    between atoms: _717  and  _718
REMARK  291  A    between atoms: _717  and  _720
REMARK  292  A    between atoms: _720  and  _721
REMARK  293  A    between atoms: _726  and  _727
REMARK  294  A    between atoms: _729  and  _731
REMARK  295  A    between atoms: _731  and  _732
REMARK  296  A    between atoms: _731  and  _734
REMARK  297  A    between atoms: _734  and  _735
REMARK  298  A    between atoms: _738  and  _740
REMARK  299  A    between atoms: _740  and  _741
REMARK  300  A    between atoms: _740  and  _743
REMARK  301  A    between atoms: _743  and  _744
REMARK  302  A    between atoms: _747  and  _749
REMARK  303  A    between atoms: _749  and  _750
REMARK  304  A    between atoms: _749  and  _752
REMARK  305  A    between atoms: _752  and  _753
REMARK  306  A    between atoms: _754  and  _756
REMARK  307  A    between atoms: _756  and  _757
REMARK  308  A    between atoms: _756  and  _759
REMARK  309  A    between atoms: _762  and  _764
REMARK  310  A    between atoms: _764  and  _765
REMARK  311  A    between atoms: _764  and  _767
REMARK  312  A    between atoms: _767  and  _768
REMARK  313  A    between atoms: _768  and  _769
REMARK  314  A    between atoms: _772  and  _774
REMARK  315  A    between atoms: _774  and  _775
REMARK  316  A    between atoms: _774  and  _777
REMARK  317  A    between atoms: _777  and  _778
REMARK  318  A    between atoms: _788  and  _790
REMARK  319  A    between atoms: _790  and  _791
REMARK  320  A    between atoms: _790  and  _793
REMARK  321  A    between atoms: _793  and  _794
REMARK  322  A    between atoms: _797  and  _799
REMARK  323  A    between atoms: _799  and  _800
REMARK  324  A    between atoms: _799  and  _802
REMARK  325  A    between atoms: _802  and  _803
REMARK  326  A    between atoms: _808  and  _809
REMARK                            x       y       z     vdW  Elec       q    Type
REMARK                         _______ _______ _______ _____ _____    ______ ____
ROOT
ATOM      1  O   HOH     1       0.762  -2.486  -8.281  0.00  0.00    +0.000 OA
ENDROOT
TORSDOF 0
REMARK  Name = ../refined-set-2016/3p9m/3p9m_pocket.pdb
REMARK  326 active torsions:
REMARK  status: ('A' for Active; 'I' for Inactive)
REMARK    1  A    between atoms: _1  and  _3
REMARK    2  A    between atoms: _3  and  _4
REMARK    3  A    between atoms: _3  and  _6
REMARK    4  A    between atoms: _6  and  _7
REMARK    5  A    between atoms: _10  and  _12
REMARK    6  A    between atoms: _12  and  _13
REMARK    7  A    between atoms: _12  and  _15
REMARK    8  A    between atoms: _15  and  _16
REMARK    9  A    between atoms: _16  and  _17
REMARK   10  A    between atoms: _17  and  _18
REMARK   11  A    between atoms: _27  and  _29
REMARK   12  A    between atoms: _29  and  _30
REMARK   13  A    between atoms: _29  and  _32
REMARK   14  A    between atoms: _32  and  _33
REMARK   15  A    between atoms: _38  and  _39
REMARK   16  A    between atoms: _41  and  _43
REMARK   17  A    between atoms: _43  and  _44
REMARK   18  A    between atoms: _43  and  _46
REMARK   19  A    between atoms: _46  and  _47
REMARK   20  A    between atoms: _53  and  _55
REMARK   21  A    between atoms: _55  and  _56
REMARK   22  A    between atoms: _55  and  _58
REMARK   23  A    between atoms: _61  and  _63
REMARK   24  A    between atoms: _63  and  _64
REMARK   25  A    between atoms: _63  and  _66
REMARK   26  A    between atoms: _66  and  _67
REMARK   27  A    between atoms: _70  and  _72
REMARK   28  A    between atoms: _72  and  _73
REMARK   29  A    between atoms: _72  and  _75
REMARK   30  A    between atoms: _75  and  _76
REMARK   31  A    between atoms: _81  and  _82
REMARK   32  A    between atoms: _84  and  _86
REMARK   33  A    between atoms: _86  and  _87
REMARK   34  A    between atoms: _86  and  _89
REMARK   35  A    between atoms: _89  and  _90
REMARK   36  A    between atoms: _90  and  _91
REMARK   37  A    between atoms: _93  and  _95
REMARK   38  A    between atoms: _95  and  _96
REMARK   39  A    between atoms: _95  and  _98
REMARK   40  A    between atoms: _98  and  _99
REMARK   41  A    between atoms: _99  and  _100
REMARK   42  A    between atoms: _103  and  _105
REMARK   43  A    between atoms: _105  and  _106
REMARK   44  A    between atoms: _105  and  _108
REMARK   45  A    between atoms: _111  and  _113
REMARK   46  A    between atoms: _113  and  _114
REMARK   47  A    between atoms: _116  and  _118
REMARK   48  A    between atoms: _118  and  _119
REMARK   49  A    between atoms: _118  and  _121
REMARK   50  A    between atoms: _121  and  _122
REMARK   51  A    between atoms: _128  and  _130
REMARK   52  A    between atoms: _130  and  _131
REMARK   53  A    between atoms: _130  and  _133
REMARK   54  A    between atoms: _136  and  _138
REMARK   55  A    between atoms: _138  and  _139
REMARK   56  A    between atoms: _138  and  _141
REMARK   57  A    between atoms: _141  and  _142
REMARK   58  A    between atoms: _148  and  _150
REMARK   59  A    between atoms: _150  and  _151
REMARK   60  A    between atoms: _150  and  _153
REMARK   61  A    between atoms: _153  and  _154
REMARK   62  A    between atoms: _159  and  _160
REMARK   63  A    between atoms: _162  and  _164
REMARK   64  A    between atoms: _164  and  _165
REMARK   65  A    between atoms: _164  and  _167
REMARK   66  A    between atoms: _167  and  _168
REMARK   67  A    between atoms: _168  and  _169
REMARK   68  A    between atoms: _171  and  _173
REMARK   69  A    between atoms: _173  and  _174
REMARK   70  A    between atoms: _173  and  _176
REMARK   71  A    between atoms: _176  and  _177
REMARK   72  A    between atoms: _182  and  _183
REMARK   73  A    between atoms: _185  and  _187
REMARK   74  A    between atoms: _187  and  _188
REMARK   75  A    between atoms: _187  and  _190
REMARK   76  A    between atoms: _190  and  _191
REMARK   77  A    between atoms: _191  and  _192
REMARK   78  A    between atoms: _192  and  _193
REMARK   79  A    between atoms: _202  and  _204
REMARK   80  A    between atoms: _204  and  _205
REMARK   81  A    between atoms: _204  and  _207
REMARK   82  A    between atoms: _207  and  _208
REMARK   83  A    between atoms: _208  and  _209
REMARK   84  A    between atoms: _212  and  _214
REMARK   85  A    between atoms: _214  and  _215
REMARK   86  A    between atoms: _214  and  _217
REMARK   87  A    between atoms: _217  and  _218
REMARK   88  A    between atoms: _218  and  _219
REMARK   89  A    between atoms: _219  and  _220
REMARK   90  A    between atoms: _220  and  _221
REMARK   91  A    between atoms: _225  and  _227
REMARK   92  A    between atoms: _227  and  _228
REMARK   93  A    between atoms: _231  and  _233
REMARK   94  A    between atoms: _233  and  _234
REMARK   95  A    between atoms: _236  and  _238
REMARK   96  A    between atoms: _238  and  _239
REMARK   97  A    between atoms: _238  and  _241
REMARK   98  A    between atoms: _241  and  _242
REMARK   99  A    between atoms: _247  and  _249
REMARK  100  A    between atoms: _249  and  _250
REMARK  101  A    between atoms: _249  and  _252
REMARK  102  A    between atoms: _252  and  _253
REMARK  103  A    between atoms: _253  and  _254
REMARK  104  A    between atoms: _257  and  _259
REMARK  105  A    between atoms: _259  and  _260
REMARK  106  A    between atoms: _259  and  _262
REMARK  107  A    between atoms: _262  and  _263
REMARK  108  A    between atoms: _263  and  _264
REMARK  109  A    between atoms: _269  and  _271
REMARK  110  A    between atoms: _271  and  _272
REMARK  111  A    between atoms: _271  and  _274
REMARK  112  A    between atoms: _274  and  _275
REMARK  113  A    between atoms: _277  and  _279
REMARK  114  A    between atoms: _279  and  _280
REMARK  115  A    between atoms: _279  and  _282
REMARK  116  A    between atoms: _282  and  _283
REMARK  117  A    between atoms: _289  and  _291
REMARK  118  A    between atoms: _291  and  _292
REMARK  119  A    between atoms: _291  and  _294
REMARK  120  A    between atoms: _294  and  _295
REMARK  121  A    between atoms: _295  and  _296
REMARK  122  A    between atoms: _296  and  _297
REMARK  123  A    between atoms: _306  and  _308
REMARK  124  A    between atoms: _308  and  _309
REMARK  125  A    between atoms: _308  and  _311
REMARK  126  A    between atoms: _314  and  _316
REMARK  127  A    between atoms: _316  and  _317
REMARK  128  A    between atoms: _316  and  _319
REMARK  129  A    between atoms: _319  and  _320
REMARK  130  A    between atoms: _323  and  _325
REMARK  131  A    between atoms: _325  and  _326
REMARK  132  A    between atoms: _325  and  _328
REMARK  133  A    between atoms: _328  and  _329
REMARK  134  A    between atoms: _332  and  _334
REMARK  135  A    between atoms: _334  and  _335
REMARK  136  A    between atoms: _334  and  _337
REMARK  137  A    between atoms: _337  and  _338
REMARK  138  A    between atoms: _338  and  _339
REMARK  139  A    between atoms: _339  and  _340
REMARK  140  A    between atoms: _349  and  _351
REMARK  141  A    between atoms: _351  and  _352
REMARK  142  A    between atoms: _351  and  _354
REMARK  143  A    between atoms: _354  and  _355
REMARK  144  A    between atoms: _358  and  _360
REMARK  145  A    between atoms: _360  and  _361
REMARK  146  A    between atoms: _360  and  _363
REMARK  147  A    between atoms: _363  and  _364
REMARK  148  A    between atoms: _367  and  _369
REMARK  149  A    between atoms: _369  and  _370
REMARK  150  A    between atoms: _369  and  _372
REMARK  151  A    between atoms: _372  and  _373
REMARK  152  A    between atoms: _378  and  _379
REMARK  153  A    between atoms: _381  and  _383
REMARK  154  A    between atoms: _383  and  _384
REMARK  155  A    between atoms: _383  and  _386
REMARK  156  A    between atoms: _386  and  _387
REMARK  157  A    between atoms: _392  and  _393
REMARK  158  A    between atoms: _395  and  _397
REMARK  159  A    between atoms: _397  and  _398
REMARK  160  A    between atoms: _397  and  _400
REMARK  161  A    between atoms: _400  and  _401
REMARK  162  A    between atoms: _404  and  _406
REMARK  163  A    between atoms: _406  and  _407
REMARK  164  A    between atoms: _406  and  _409
REMARK  165  A    between atoms: _409  and  _410
REMARK  166  A    between atoms: _410  and  _411
REMARK  167  A    between atoms: _416  and  _418
REMARK  168  A    between atoms: _418  and  _419
REMARK  169  A    between atoms: _418  and  _421
REMARK  170  A    between atoms: _424  and  _426
REMARK  171  A    between atoms: _426  and  _427
REMARK  172  A    between atoms: _426  and  _429
REMARK  173  A    between atoms: _429  and  _430
REMARK  174  A    between atoms: _433  and  _435
REMARK  175  A    between atoms: _435  and  _436
REMARK  176  A    between atoms: _435  and  _438
REMARK  177  A    between atoms: _438  and  _439
REMARK  178  A    between atoms: _441  and  _443
REMARK  179  A    between atoms: _443  and  _444
REMARK  180  A    between atoms: _446  and  _448
REMARK  181  A    between atoms: _448  and  _449
REMARK  182  A    between atoms: _448  and  _451
REMARK  183  A    between atoms: _451  and  _452
REMARK  184  A    between atoms: _452  and  _753
REMARK  185  A    between atoms: _453  and  _455
REMARK  186  A    between atoms: _455  and  _456
REMARK  187  A    between atoms: _455  and  _458
REMARK  188  A    between atoms: _458  and  _459
REMARK  189  A    between atoms: _464  and  _465
REMARK  190  A    between atoms: _467  and  _469
REMARK  191  A    between atoms: _469  and  _470
REMARK  192  A    between atoms: _469  and  _472
REMARK  193  A    between atoms: _472  and  _473
REMARK  194  A    between atoms: _473  and  _474
REMARK  195  A    between atoms: _479  and  _481
REMARK  196  A    between atoms: _481  and  _482
REMARK  197  A    between atoms: _481  and  _484
REMARK  198  A    between atoms: _484  and  _485
REMARK  199  A    between atoms: _485  and  _486
REMARK  200  A    between atoms: _491  and  _493
REMARK  201  A    between atoms: _493  and  _494
REMARK  202  A    between atoms: _493  and  _496
REMARK  203  A    between atoms: _496  and  _497
REMARK  204  A    between atoms: _502  and  _503
REMARK  205  A    between atoms: _505  and  _507
REMARK  206  A    between atoms: _507  and  _508
REMARK  207  A    between atoms: _511  and  _513
REMARK  208  A    between atoms: _513  and  _514
REMARK  209  A    between atoms: _513  and  _516
REMARK  210  A    between atoms: _516  and  _517
REMARK  211  A    between atoms: _522  and  _523
REMARK  212  A    between atoms: _525  and  _527
REMARK  213  A    between atoms: _527  and  _528
REMARK  214  A    between atoms: _527  and  _530
REMARK  215  A    between atoms: _530  and  _531
REMARK  216  A    between atoms: _536  and  _537
REMARK  217  A    between atoms: _539  and  _541
REMARK  218  A    between atoms: _541  and  _542
REMARK  219  A    between atoms: _541  and  _544
REMARK  220  A    between atoms: _544  and  _545
REMARK  221  A    between atoms: _548  and  _550
REMARK  222  A    between atoms: _550  and  _551
REMARK  223  A    between atoms: _554  and  _556
REMARK  224  A    between atoms: _556  and  _557
REMARK  225  A    between atoms: _560  and  _562
REMARK  226  A    between atoms: _562  and  _563
REMARK  227  A    between atoms: _562  and  _565
REMARK  228  A    between atoms: _565  and  _566
REMARK  229  A    between atoms: _569  and  _571
REMARK  230  A    between atoms: _571  and  _572
REMARK  231  A    between atoms: _571  and  _574
REMARK  232  A    between atoms: _574  and  _575
REMARK  233  A    between atoms: _578  and  _580
REMARK  234  A    between atoms: _580  and  _581
REMARK  235  A    between atoms: _580  and  _583
REMARK  236  A    between atoms: _583  and  _584
REMARK  237  A    between atoms: _587  and  _589
REMARK  238  A    between atoms: _589  and  _590
REMARK  239  A    between atoms: _589  and  _592
REMARK  240  A    between atoms: _592  and  _593
REMARK  241  A    between atoms: _593  and  _594
REMARK  242  A    between atoms: _594  and  _595
REMARK  243  A    between atoms: _595  and  _596
REMARK  244  A    between atoms: _600  and  _602
REMARK  245  A    between atoms: _602  and  _603
REMARK  246  A    between atoms: _602  and  _605
REMARK  247  A    between atoms: _605  and  _606
REMARK  248  A    between atoms: _611  and  _613
REMARK  249  A    between atoms: _613  and  _614
REMARK  250  A    between atoms: _613  and  _616
REMARK  251  A    between atoms: _616  and  _617
REMARK  252  A    between atoms: _617  and  _618
REMARK  253  A    between atoms: _618  and  _619
REMARK  254  A    between atoms: _619  and  _620
REMARK  255  A    between atoms: _624  and  _626
REMARK  256  A    between atoms: _626  and  _627
REMARK  257  A    between atoms: _626  and  _629
REMARK  258  A    between atoms: _629  and  _630
REMARK  259  A    between atoms: _640  and  _642
REMARK  260  A    between atoms: _642  and  _643
REMARK  261  A    between atoms: _646  and  _648
REMARK  262  A    between atoms: _648  and  _649
REMARK  263  A    between atoms: _648  and  _651
REMARK  264  A    between atoms: _651  and  _652
REMARK  265  A    between atoms: _652  and  _653
REMARK  266  A    between atoms: _656  and  _658
REMARK  267  A    between atoms: _658  and  _659
REMARK  268  A    between atoms: _658  and  _661
REMARK  269  A    between atoms: _661  and  _662
REMARK  270  A    between atoms: _662  and  _663
REMARK  271  A    between atoms: _666  and  _668
REMARK  272  A    between atoms: _668  and  _669
REMARK  273  A    between atoms: _668  and  _671
REMARK  274  A    between atoms: _671  and  _672
REMARK  275  A    between atoms: _672  and  _673
REMARK  276  A    between atoms: _673  and  _674
REMARK  277  A    between atoms: _683  and  _685
REMARK  278  A    between atoms: _685  and  _686
REMARK  279  A    between atoms: _685  and  _688
REMARK  280  A    between atoms: _688  and  _689
REMARK  281  A    between atoms: _692  and  _694
REMARK  282  A    between atoms: _694  and  _695
REMARK  283  A    between atoms: _694  and  _697
REMARK  284  A    between atoms: _697  and  _698
REMARK  285  A    between atoms: _698  and  _699
REMARK  286  A    between atoms: _699  and  _700
REMARK  287  A    between atoms: _709  and  _711
REMARK  288  A    between atoms: _711  and  _712
REMARK  289  A    between atoms: _715  and  _717
REMARK  290  A    between atoms: _717  and  _718
REMARK  291  A    between atoms: _717  and  _720
REMARK  292  A    between atoms: _720  and  _721
REMARK  293  A    between atoms: _726  and  _727
REMARK  294  A    between atoms: _729  and  _731
REMARK  295  A    between atoms: _731  and  _732
REMARK  296  A    between atoms: _731  and  _734
REMARK  297  A    between atoms: _734  and  _735
REMARK  298  A    between atoms: _738  and  _740
REMARK  299  A    between atoms: _740  and  _741
REMARK  300  A    between atoms: _740  and  _743
REMARK  301  A    between atoms: _743  and  _744
REMARK  302  A    between atoms: _747  and  _749
REMARK  303  A    between atoms: _749  and  _750
REMARK  304  A    between atoms: _749  and  _752
REMARK  305  A    between atoms: _752  and  _753
REMARK  306  A    between atoms: _754  and  _756
REMARK  307  A    between atoms: _756  and  _757
REMARK  308  A    between atoms: _756  and  _759
REMARK  309  A    between atoms: _762  and  _764
REMARK  310  A    between atoms: _764  and  _765
REMARK  311  A    between atoms: _764  and  _767
REMARK  312  A    between atoms: _767  and  _768
REMARK  313  A    between atoms: _768  and  _769
REMARK  314  A    between atoms: _772  and  _774
REMARK  315  A    between atoms: _774  and  _775
REMARK  316  A    between atoms: _774  and  _777
REMARK  317  A    between atoms: _777  and  _778
REMARK  318  A    between atoms: _788  and  _790
REMARK  319  A    between atoms: _790  and  _791
REMARK  320  A    between atoms: _790  and  _793
REMARK  321  A    between atoms: _793  and  _794
REMARK  322  A    between atoms: _797  and  _799
REMARK  323  A    between atoms: _799  and  _800
REMARK  324  A    between atoms: _799  and  _802
REMARK  325  A    between atoms: _802  and  _803
REMARK  326  A    between atoms: _808  and  _809
REMARK                            x       y       z     vdW  Elec       q    Type
REMARK                         _______ _______ _______ _____ _____    ______ ____
ROOT
ATOM      1  O   HOH     1      -8.198  19.978  -2.396  0.00  0.00    +0.000 OA
ENDROOT
TORSDOF 0
REMARK  Name = ../refined-set-2016/3p9m/3p9m_pocket.pdb
REMARK  326 active torsions:
REMARK  status: ('A' for Active; 'I' for Inactive)
REMARK    1  A    between atoms: _1  and  _3
REMARK    2  A    between atoms: _3  and  _4
REMARK    3  A    between atoms: _3  and  _6
REMARK    4  A    between atoms: _6  and  _7
REMARK    5  A    between atoms: _10  and  _12
REMARK    6  A    between atoms: _12  and  _13
REMARK    7  A    between atoms: _12  and  _15
REMARK    8  A    between atoms: _15  and  _16
REMARK    9  A    between atoms: _16  and  _17
REMARK   10  A    between atoms: _17  and  _18
REMARK   11  A    between atoms: _27  and  _29
REMARK   12  A    between atoms: _29  and  _30
REMARK   13  A    between atoms: _29  and  _32
REMARK   14  A    between atoms: _32  and  _33
REMARK   15  A    between atoms: _38  and  _39
REMARK   16  A    between atoms: _41  and  _43
REMARK   17  A    between atoms: _43  and  _44
REMARK   18  A    between atoms: _43  and  _46
REMARK   19  A    between atoms: _46  and  _47
REMARK   20  A    between atoms: _53  and  _55
REMARK   21  A    between atoms: _55  and  _56
REMARK   22  A    between atoms: _55  and  _58
REMARK   23  A    between atoms: _61  and  _63
REMARK   24  A    between atoms: _63  and  _64
REMARK   25  A    between atoms: _63  and  _66
REMARK   26  A    between atoms: _66  and  _67
REMARK   27  A    between atoms: _70  and  _72
REMARK   28  A    between atoms: _72  and  _73
REMARK   29  A    between atoms: _72  and  _75
REMARK   30  A    between atoms: _75  and  _76
REMARK   31  A    between atoms: _81  and  _82
REMARK   32  A    between atoms: _84  and  _86
REMARK   33  A    between atoms: _86  and  _87
REMARK   34  A    between atoms: _86  and  _89
REMARK   35  A    between atoms: _89  and  _90
REMARK   36  A    between atoms: _90  and  _91
REMARK   37  A    between atoms: _93  and  _95
REMARK   38  A    between atoms: _95  and  _96
REMARK   39  A    between atoms: _95  and  _98
REMARK   40  A    between atoms: _98  and  _99
REMARK   41  A    between atoms: _99  and  _100
REMARK   42  A    between atoms: _103  and  _105
REMARK   43  A    between atoms: _105  and  _106
REMARK   44  A    between atoms: _105  and  _108
REMARK   45  A    between atoms: _111  and  _113
REMARK   46  A    between atoms: _113  and  _114
REMARK   47  A    between atoms: _116  and  _118
REMARK   48  A    between atoms: _118  and  _119
REMARK   49  A    between atoms: _118  and  _121
REMARK   50  A    between atoms: _121  and  _122
REMARK   51  A    between atoms: _128  and  _130
REMARK   52  A    between atoms: _130  and  _131
REMARK   53  A    between atoms: _130  and  _133
REMARK   54  A    between atoms: _136  and  _138
REMARK   55  A    between atoms: _138  and  _139
REMARK   56  A    between atoms: _138  and  _141
REMARK   57  A    between atoms: _141  and  _142
REMARK   58  A    between atoms: _148  and  _150
REMARK   59  A    between atoms: _150  and  _151
REMARK   60  A    between atoms: _150  and  _153
REMARK   61  A    between atoms: _153  and  _154
REMARK   62  A    between atoms: _159  and  _160
REMARK   63  A    between atoms: _162  and  _164
REMARK   64  A    between atoms: _164  and  _165
REMARK   65  A    between atoms: _164  and  _167
REMARK   66  A    between atoms: _167  and  _168
REMARK   67  A    between atoms: _168  and  _169
REMARK   68  A    between atoms: _171  and  _173
REMARK   69  A    between atoms: _173  and  _174
REMARK   70  A    between atoms: _173  and  _176
REMARK   71  A    between atoms: _176  and  _177
REMARK   72  A    between atoms: _182  and  _183
REMARK   73  A    between atoms: _185  and  _187
REMARK   74  A    between atoms: _187  and  _188
REMARK   75  A    between atoms: _187  and  _190
REMARK   76  A    between atoms: _190  and  _191
REMARK   77  A    between atoms: _191  and  _192
REMARK   78  A    between atoms: _192  and  _193
REMARK   79  A    between atoms: _202  and  _204
REMARK   80  A    between atoms: _204  and  _205
REMARK   81  A    between atoms: _204  and  _207
REMARK   82  A    between atoms: _207  and  _208
REMARK   83  A    between atoms: _208  and  _209
REMARK   84  A    between atoms: _212  and  _214
REMARK   85  A    between atoms: _214  and  _215
REMARK   86  A    between atoms: _214  and  _217
REMARK   87  A    between atoms: _217  and  _218
REMARK   88  A    between atoms: _218  and  _219
REMARK   89  A    between atoms: _219  and  _220
REMARK   90  A    between atoms: _220  and  _221
REMARK   91  A    between atoms: _225  and  _227
REMARK   92  A    between atoms: _227  and  _228
REMARK   93  A    between atoms: _231  and  _233
REMARK   94  A    between atoms: _233  and  _234
REMARK   95  A    between atoms: _236  and  _238
REMARK   96  A    between atoms: _238  and  _239
REMARK   97  A    between atoms: _238  and  _241
REMARK   98  A    between atoms: _241  and  _242
REMARK   99  A    between atoms: _247  and  _249
REMARK  100  A    between atoms: _249  and  _250
REMARK  101  A    between atoms: _249  and  _252
REMARK  102  A    between atoms: _252  and  _253
REMARK  103  A    between atoms: _253  and  _254
REMARK  104  A    between atoms: _257  and  _259
REMARK  105  A    between atoms: _259  and  _260
REMARK  106  A    between atoms: _259  and  _262
REMARK  107  A    between atoms: _262  and  _263
REMARK  108  A    between atoms: _263  and  _264
REMARK  109  A    between atoms: _269  and  _271
REMARK  110  A    between atoms: _271  and  _272
REMARK  111  A    between atoms: _271  and  _274
REMARK  112  A    between atoms: _274  and  _275
REMARK  113  A    between atoms: _277  and  _279
REMARK  114  A    between atoms: _279  and  _280
REMARK  115  A    between atoms: _279  and  _282
REMARK  116  A    between atoms: _282  and  _283
REMARK  117  A    between atoms: _289  and  _291
REMARK  118  A    between atoms: _291  and  _292
REMARK  119  A    between atoms: _291  and  _294
REMARK  120  A    between atoms: _294  and  _295
REMARK  121  A    between atoms: _295  and  _296
REMARK  122  A    between atoms: _296  and  _297
REMARK  123  A    between atoms: _306  and  _308
REMARK  124  A    between atoms: _308  and  _309
REMARK  125  A    between atoms: _308  and  _311
REMARK  126  A    between atoms: _314  and  _316
REMARK  127  A    between atoms: _316  and  _317
REMARK  128  A    between atoms: _316  and  _319
REMARK  129  A    between atoms: _319  and  _320
REMARK  130  A    between atoms: _323  and  _325
REMARK  131  A    between atoms: _325  and  _326
REMARK  132  A    between atoms: _325  and  _328
REMARK  133  A    between atoms: _328  and  _329
REMARK  134  A    between atoms: _332  and  _334
REMARK  135  A    between atoms: _334  and  _335
REMARK  136  A    between atoms: _334  and  _337
REMARK  137  A    between atoms: _337  and  _338
REMARK  138  A    between atoms: _338  and  _339
REMARK  139  A    between atoms: _339  and  _340
REMARK  140  A    between atoms: _349  and  _351
REMARK  141  A    between atoms: _351  and  _352
REMARK  142  A    between atoms: _351  and  _354
REMARK  143  A    between atoms: _354  and  _355
REMARK  144  A    between atoms: _358  and  _360
REMARK  145  A    between atoms: _360  and  _361
REMARK  146  A    between atoms: _360  and  _363
REMARK  147  A    between atoms: _363  and  _364
REMARK  148  A    between atoms: _367  and  _369
REMARK  149  A    between atoms: _369  and  _370
REMARK  150  A    between atoms: _369  and  _372
REMARK  151  A    between atoms: _372  and  _373
REMARK  152  A    between atoms: _378  and  _379
REMARK  153  A    between atoms: _381  and  _383
REMARK  154  A    between atoms: _383  and  _384
REMARK  155  A    between atoms: _383  and  _386
REMARK  156  A    between atoms: _386  and  _387
REMARK  157  A    between atoms: _392  and  _393
REMARK  158  A    between atoms: _395  and  _397
REMARK  159  A    between atoms: _397  and  _398
REMARK  160  A    between atoms: _397  and  _400
REMARK  161  A    between atoms: _400  and  _401
REMARK  162  A    between atoms: _404  and  _406
REMARK  163  A    between atoms: _406  and  _407
REMARK  164  A    between atoms: _406  and  _409
REMARK  165  A    between atoms: _409  and  _410
REMARK  166  A    between atoms: _410  and  _411
REMARK  167  A    between atoms: _416  and  _418
REMARK  168  A    between atoms: _418  and  _419
REMARK  169  A    between atoms: _418  and  _421
REMARK  170  A    between atoms: _424  and  _426
REMARK  171  A    between atoms: _426  and  _427
REMARK  172  A    between atoms: _426  and  _429
REMARK  173  A    between atoms: _429  and  _430
REMARK  174  A    between atoms: _433  and  _435
REMARK  175  A    between atoms: _435  and  _436
REMARK  176  A    between atoms: _435  and  _438
REMARK  177  A    between atoms: _438  and  _439
REMARK  178  A    between atoms: _441  and  _443
REMARK  179  A    between atoms: _443  and  _444
REMARK  180  A    between atoms: _446  and  _448
REMARK  181  A    between atoms: _448  and  _449
REMARK  182  A    between atoms: _448  and  _451
REMARK  183  A    between atoms: _451  and  _452
REMARK  184  A    between atoms: _452  and  _753
REMARK  185  A    between atoms: _453  and  _455
REMARK  186  A    between atoms: _455  and  _456
REMARK  187  A    between atoms: _455  and  _458
REMARK  188  A    between atoms: _458  and  _459
REMARK  189  A    between atoms: _464  and  _465
REMARK  190  A    between atoms: _467  and  _469
REMARK  191  A    between atoms: _469  and  _470
REMARK  192  A    between atoms: _469  and  _472
REMARK  193  A    between atoms: _472  and  _473
REMARK  194  A    between atoms: _473  and  _474
REMARK  195  A    between atoms: _479  and  _481
REMARK  196  A    between atoms: _481  and  _482
REMARK  197  A    between atoms: _481  and  _484
REMARK  198  A    between atoms: _484  and  _485
REMARK  199  A    between atoms: _485  and  _486
REMARK  200  A    between atoms: _491  and  _493
REMARK  201  A    between atoms: _493  and  _494
REMARK  202  A    between atoms: _493  and  _496
REMARK  203  A    between atoms: _496  and  _497
REMARK  204  A    between atoms: _502  and  _503
REMARK  205  A    between atoms: _505  and  _507
REMARK  206  A    between atoms: _507  and  _508
REMARK  207  A    between atoms: _511  and  _513
REMARK  208  A    between atoms: _513  and  _514
REMARK  209  A    between atoms: _513  and  _516
REMARK  210  A    between atoms: _516  and  _517
REMARK  211  A    between atoms: _522  and  _523
REMARK  212  A    between atoms: _525  and  _527
REMARK  213  A    between atoms: _527  and  _528
REMARK  214  A    between atoms: _527  and  _530
REMARK  215  A    between atoms: _530  and  _531
REMARK  216  A    between atoms: _536  and  _537
REMARK  217  A    between atoms: _539  and  _541
REMARK  218  A    between atoms: _541  and  _542
REMARK  219  A    between atoms: _541  and  _544
REMARK  220  A    between atoms: _544  and  _545
REMARK  221  A    between atoms: _548  and  _550
REMARK  222  A    between atoms: _550  and  _551
REMARK  223  A    between atoms: _554  and  _556
REMARK  224  A    between atoms: _556  and  _557
REMARK  225  A    between atoms: _560  and  _562
REMARK  226  A    between atoms: _562  and  _563
REMARK  227  A    between atoms: _562  and  _565
REMARK  228  A    between atoms: _565  and  _566
REMARK  229  A    between atoms: _569  and  _571
REMARK  230  A    between atoms: _571  and  _572
REMARK  231  A    between atoms: _571  and  _574
REMARK  232  A    between atoms: _574  and  _575
REMARK  233  A    between atoms: _578  and  _580
REMARK  234  A    between atoms: _580  and  _581
REMARK  235  A    between atoms: _580  and  _583
REMARK  236  A    between atoms: _583  and  _584
REMARK  237  A    between atoms: _587  and  _589
REMARK  238  A    between atoms: _589  and  _590
REMARK  239  A    between atoms: _589  and  _592
REMARK  240  A    between atoms: _592  and  _593
REMARK  241  A    between atoms: _593  and  _594
REMARK  242  A    between atoms: _594  and  _595
REMARK  243  A    between atoms: _595  and  _596
REMARK  244  A    between atoms: _600  and  _602
REMARK  245  A    between atoms: _602  and  _603
REMARK  246  A    between atoms: _602  and  _605
REMARK  247  A    between atoms: _605  and  _606
REMARK  248  A    between atoms: _611  and  _613
REMARK  249  A    between atoms: _613  and  _614
REMARK  250  A    between atoms: _613  and  _616
REMARK  251  A    between atoms: _616  and  _617
REMARK  252  A    between atoms: _617  and  _618
REMARK  253  A    between atoms: _618  and  _619
REMARK  254  A    between atoms: _619  and  _620
REMARK  255  A    between atoms: _624  and  _626
REMARK  256  A    between atoms: _626  and  _627
REMARK  257  A    between atoms: _626  and  _629
REMARK  258  A    between atoms: _629  and  _630
REMARK  259  A    between atoms: _640  and  _642
REMARK  260  A    between atoms: _642  and  _643
REMARK  261  A    between atoms: _646  and  _648
REMARK  262  A    between atoms: _648  and  _649
REMARK  263  A    between atoms: _648  and  _651
REMARK  264  A    between atoms: _651  and  _652
REMARK  265  A    between atoms: _652  and  _653
REMARK  266  A    between atoms: _656  and  _658
REMARK  267  A    between atoms: _658  and  _659
REMARK  268  A    between atoms: _658  and  _661
REMARK  269  A    between atoms: _661  and  _662
REMARK  270  A    between atoms: _662  and  _663
REMARK  271  A    between atoms: _666  and  _668
REMARK  272  A    between atoms: _668  and  _669
REMARK  273  A    between atoms: _668  and  _671
REMARK  274  A    between atoms: _671  and  _672
REMARK  275  A    between atoms: _672  and  _673
REMARK  276  A    between atoms: _673  and  _674
REMARK  277  A    between atoms: _683  and  _685
REMARK  278  A    between atoms: _685  and  _686
REMARK  279  A    between atoms: _685  and  _688
REMARK  280  A    between atoms: _688  and  _689
REMARK  281  A    between atoms: _692  and  _694
REMARK  282  A    between atoms: _694  and  _695
REMARK  283  A    between atoms: _694  and  _697
REMARK  284  A    between atoms: _697  and  _698
REMARK  285  A    between atoms: _698  and  _699
REMARK  286  A    between atoms: _699  and  _700
REMARK  287  A    between atoms: _709  and  _711
REMARK  288  A    between atoms: _711  and  _712
REMARK  289  A    between atoms: _715  and  _717
REMARK  290  A    between atoms: _717  and  _718
REMARK  291  A    between atoms: _717  and  _720
REMARK  292  A    between atoms: _720  and  _721
REMARK  293  A    between atoms: _726  and  _727
REMARK  294  A    between atoms: _729  and  _731
REMARK  295  A    between atoms: _731  and  _732
REMARK  296  A    between atoms: _731  and  _734
REMARK  297  A    between atoms: _734  and  _735
REMARK  298  A    between atoms: _738  and  _740
REMARK  299  A    between atoms: _740  and  _741
REMARK  300  A    between atoms: _740  and  _743
REMARK  301  A    between atoms: _743  and  _744
REMARK  302  A    between atoms: _747  and  _749
REMARK  303  A    between atoms: _749  and  _750
REMARK  304  A    between atoms: _749  and  _752
REMARK  305  A    between atoms: _752  and  _753
REMARK  306  A    between atoms: _754  and  _756
REMARK  307  A    between atoms: _756  and  _757
REMARK  308  A    between atoms: _756  and  _759
REMARK  309  A    between atoms: _762  and  _764
REMARK  310  A    between atoms: _764  and  _765
REMARK  311  A    between atoms: _764  and  _767
REMARK  312  A    between atoms: _767  and  _768
REMARK  313  A    between atoms: _768  and  _769
REMARK  314  A    between atoms: _772  and  _774
REMARK  315  A    between atoms: _774  and  _775
REMARK  316  A    between atoms: _774  and  _777
REMARK  317  A    between atoms: _777  and  _778
REMARK  318  A    between atoms: _788  and  _790
REMARK  319  A    between atoms: _790  and  _791
REMARK  320  A    between atoms: _790  and  _793
REMARK  321  A    between atoms: _793  and  _794
REMARK  322  A    between atoms: _797  and  _799
REMARK  323  A    between atoms: _799  and  _800
REMARK  324  A    between atoms: _799  and  _802
REMARK  325  A    between atoms: _802  and  _803
REMARK  326  A    between atoms: _808  and  _809
REMARK                            x       y       z     vdW  Elec       q    Type
REMARK                         _______ _______ _______ _____ _____    ______ ____
ROOT
ATOM      1  O   HOH     1       2.619  -4.334  -7.977  0.00  0.00    +0.000 OA
ENDROOT
TORSDOF 0
REMARK  Name = ../refined-set-2016/3p9m/3p9m_pocket.pdb
REMARK  326 active torsions:
REMARK  status: ('A' for Active; 'I' for Inactive)
REMARK    1  A    between atoms: _1  and  _3
REMARK    2  A    between atoms: _3  and  _4
REMARK    3  A    between atoms: _3  and  _6
REMARK    4  A    between atoms: _6  and  _7
REMARK    5  A    between atoms: _10  and  _12
REMARK    6  A    between atoms: _12  and  _13
REMARK    7  A    between atoms: _12  and  _15
REMARK    8  A    between atoms: _15  and  _16
REMARK    9  A    between atoms: _16  and  _17
REMARK   10  A    between atoms: _17  and  _18
REMARK   11  A    between atoms: _27  and  _29
REMARK   12  A    between atoms: _29  and  _30
REMARK   13  A    between atoms: _29  and  _32
REMARK   14  A    between atoms: _32  and  _33
REMARK   15  A    between atoms: _38  and  _39
REMARK   16  A    between atoms: _41  and  _43
REMARK   17  A    between atoms: _43  and  _44
REMARK   18  A    between atoms: _43  and  _46
REMARK   19  A    between atoms: _46  and  _47
REMARK   20  A    between atoms: _53  and  _55
REMARK   21  A    between atoms: _55  and  _56
REMARK   22  A    between atoms: _55  and  _58
REMARK   23  A    between atoms: _61  and  _63
REMARK   24  A    between atoms: _63  and  _64
REMARK   25  A    between atoms: _63  and  _66
REMARK   26  A    between atoms: _66  and  _67
REMARK   27  A    between atoms: _70  and  _72
REMARK   28  A    between atoms: _72  and  _73
REMARK   29  A    between atoms: _72  and  _75
REMARK   30  A    between atoms: _75  and  _76
REMARK   31  A    between atoms: _81  and  _82
REMARK   32  A    between atoms: _84  and  _86
REMARK   33  A    between atoms: _86  and  _87
REMARK   34  A    between atoms: _86  and  _89
REMARK   35  A    between atoms: _89  and  _90
REMARK   36  A    between atoms: _90  and  _91
REMARK   37  A    between atoms: _93  and  _95
REMARK   38  A    between atoms: _95  and  _96
REMARK   39  A    between atoms: _95  and  _98
REMARK   40  A    between atoms: _98  and  _99
REMARK   41  A    between atoms: _99  and  _100
REMARK   42  A    between atoms: _103  and  _105
REMARK   43  A    between atoms: _105  and  _106
REMARK   44  A    between atoms: _105  and  _108
REMARK   45  A    between atoms: _111  and  _113
REMARK   46  A    between atoms: _113  and  _114
REMARK   47  A    between atoms: _116  and  _118
REMARK   48  A    between atoms: _118  and  _119
REMARK   49  A    between atoms: _118  and  _121
REMARK   50  A    between atoms: _121  and  _122
REMARK   51  A    between atoms: _128  and  _130
REMARK   52  A    between atoms: _130  and  _131
REMARK   53  A    between atoms: _130  and  _133
REMARK   54  A    between atoms: _136  and  _138
REMARK   55  A    between atoms: _138  and  _139
REMARK   56  A    between atoms: _138  and  _141
REMARK   57  A    between atoms: _141  and  _142
REMARK   58  A    between atoms: _148  and  _150
REMARK   59  A    between atoms: _150  and  _151
REMARK   60  A    between atoms: _150  and  _153
REMARK   61  A    between atoms: _153  and  _154
REMARK   62  A    between atoms: _159  and  _160
REMARK   63  A    between atoms: _162  and  _164
REMARK   64  A    between atoms: _164  and  _165
REMARK   65  A    between atoms: _164  and  _167
REMARK   66  A    between atoms: _167  and  _168
REMARK   67  A    between atoms: _168  and  _169
REMARK   68  A    between atoms: _171  and  _173
REMARK   69  A    between atoms: _173  and  _174
REMARK   70  A    between atoms: _173  and  _176
REMARK   71  A    between atoms: _176  and  _177
REMARK   72  A    between atoms: _182  and  _183
REMARK   73  A    between atoms: _185  and  _187
REMARK   74  A    between atoms: _187  and  _188
REMARK   75  A    between atoms: _187  and  _190
REMARK   76  A    between atoms: _190  and  _191
REMARK   77  A    between atoms: _191  and  _192
REMARK   78  A    between atoms: _192  and  _193
REMARK   79  A    between atoms: _202  and  _204
REMARK   80  A    between atoms: _204  and  _205
REMARK   81  A    between atoms: _204  and  _207
REMARK   82  A    between atoms: _207  and  _208
REMARK   83  A    between atoms: _208  and  _209
REMARK   84  A    between atoms: _212  and  _214
REMARK   85  A    between atoms: _214  and  _215
REMARK   86  A    between atoms: _214  and  _217
REMARK   87  A    between atoms: _217  and  _218
REMARK   88  A    between atoms: _218  and  _219
REMARK   89  A    between atoms: _219  and  _220
REMARK   90  A    between atoms: _220  and  _221
REMARK   91  A    between atoms: _225  and  _227
REMARK   92  A    between atoms: _227  and  _228
REMARK   93  A    between atoms: _231  and  _233
REMARK   94  A    between atoms: _233  and  _234
REMARK   95  A    between atoms: _236  and  _238
REMARK   96  A    between atoms: _238  and  _239
REMARK   97  A    between atoms: _238  and  _241
REMARK   98  A    between atoms: _241  and  _242
REMARK   99  A    between atoms: _247  and  _249
REMARK  100  A    between atoms: _249  and  _250
REMARK  101  A    between atoms: _249  and  _252
REMARK  102  A    between atoms: _252  and  _253
REMARK  103  A    between atoms: _253  and  _254
REMARK  104  A    between atoms: _257  and  _259
REMARK  105  A    between atoms: _259  and  _260
REMARK  106  A    between atoms: _259  and  _262
REMARK  107  A    between atoms: _262  and  _263
REMARK  108  A    between atoms: _263  and  _264
REMARK  109  A    between atoms: _269  and  _271
REMARK  110  A    between atoms: _271  and  _272
REMARK  111  A    between atoms: _271  and  _274
REMARK  112  A    between atoms: _274  and  _275
REMARK  113  A    between atoms: _277  and  _279
REMARK  114  A    between atoms: _279  and  _280
REMARK  115  A    between atoms: _279  and  _282
REMARK  116  A    between atoms: _282  and  _283
REMARK  117  A    between atoms: _289  and  _291
REMARK  118  A    between atoms: _291  and  _292
REMARK  119  A    between atoms: _291  and  _294
REMARK  120  A    between atoms: _294  and  _295
REMARK  121  A    between atoms: _295  and  _296
REMARK  122  A    between atoms: _296  and  _297
REMARK  123  A    between atoms: _306  and  _308
REMARK  124  A    between atoms: _308  and  _309
REMARK  125  A    between atoms: _308  and  _311
REMARK  126  A    between atoms: _314  and  _316
REMARK  127  A    between atoms: _316  and  _317
REMARK  128  A    between atoms: _316  and  _319
REMARK  129  A    between atoms: _319  and  _320
REMARK  130  A    between atoms: _323  and  _325
REMARK  131  A    between atoms: _325  and  _326
REMARK  132  A    between atoms: _325  and  _328
REMARK  133  A    between atoms: _328  and  _329
REMARK  134  A    between atoms: _332  and  _334
REMARK  135  A    between atoms: _334  and  _335
REMARK  136  A    between atoms: _334  and  _337
REMARK  137  A    between atoms: _337  and  _338
REMARK  138  A    between atoms: _338  and  _339
REMARK  139  A    between atoms: _339  and  _340
REMARK  140  A    between atoms: _349  and  _351
REMARK  141  A    between atoms: _351  and  _352
REMARK  142  A    between atoms: _351  and  _354
REMARK  143  A    between atoms: _354  and  _355
REMARK  144  A    between atoms: _358  and  _360
REMARK  145  A    between atoms: _360  and  _361
REMARK  146  A    between atoms: _360  and  _363
REMARK  147  A    between atoms: _363  and  _364
REMARK  148  A    between atoms: _367  and  _369
REMARK  149  A    between atoms: _369  and  _370
REMARK  150  A    between atoms: _369  and  _372
REMARK  151  A    between atoms: _372  and  _373
REMARK  152  A    between atoms: _378  and  _379
REMARK  153  A    between atoms: _381  and  _383
REMARK  154  A    between atoms: _383  and  _384
REMARK  155  A    between atoms: _383  and  _386
REMARK  156  A    between atoms: _386  and  _387
REMARK  157  A    between atoms: _392  and  _393
REMARK  158  A    between atoms: _395  and  _397
REMARK  159  A    between atoms: _397  and  _398
REMARK  160  A    between atoms: _397  and  _400
REMARK  161  A    between atoms: _400  and  _401
REMARK  162  A    between atoms: _404  and  _406
REMARK  163  A    between atoms: _406  and  _407
REMARK  164  A    between atoms: _406  and  _409
REMARK  165  A    between atoms: _409  and  _410
REMARK  166  A    between atoms: _410  and  _411
REMARK  167  A    between atoms: _416  and  _418
REMARK  168  A    between atoms: _418  and  _419
REMARK  169  A    between atoms: _418  and  _421
REMARK  170  A    between atoms: _424  and  _426
REMARK  171  A    between atoms: _426  and  _427
REMARK  172  A    between atoms: _426  and  _429
REMARK  173  A    between atoms: _429  and  _430
REMARK  174  A    between atoms: _433  and  _435
REMARK  175  A    between atoms: _435  and  _436
REMARK  176  A    between atoms: _435  and  _438
REMARK  177  A    between atoms: _438  and  _439
REMARK  178  A    between atoms: _441  and  _443
REMARK  179  A    between atoms: _443  and  _444
REMARK  180  A    between atoms: _446  and  _448
REMARK  181  A    between atoms: _448  and  _449
REMARK  182  A    between atoms: _448  and  _451
REMARK  183  A    between atoms: _451  and  _452
REMARK  184  A    between atoms: _452  and  _753
REMARK  185  A    between atoms: _453  and  _455
REMARK  186  A    between atoms: _455  and  _456
REMARK  187  A    between atoms: _455  and  _458
REMARK  188  A    between atoms: _458  and  _459
REMARK  189  A    between atoms: _464  and  _465
REMARK  190  A    between atoms: _467  and  _469
REMARK  191  A    between atoms: _469  and  _470
REMARK  192  A    between atoms: _469  and  _472
REMARK  193  A    between atoms: _472  and  _473
REMARK  194  A    between atoms: _473  and  _474
REMARK  195  A    between atoms: _479  and  _481
REMARK  196  A    between atoms: _481  and  _482
REMARK  197  A    between atoms: _481  and  _484
REMARK  198  A    between atoms: _484  and  _485
REMARK  199  A    between atoms: _485  and  _486
REMARK  200  A    between atoms: _491  and  _493
REMARK  201  A    between atoms: _493  and  _494
REMARK  202  A    between atoms: _493  and  _496
REMARK  203  A    between atoms: _496  and  _497
REMARK  204  A    between atoms: _502  and  _503
REMARK  205  A    between atoms: _505  and  _507
REMARK  206  A    between atoms: _507  and  _508
REMARK  207  A    between atoms: _511  and  _513
REMARK  208  A    between atoms: _513  and  _514
REMARK  209  A    between atoms: _513  and  _516
REMARK  210  A    between atoms: _516  and  _517
REMARK  211  A    between atoms: _522  and  _523
REMARK  212  A    between atoms: _525  and  _527
REMARK  213  A    between atoms: _527  and  _528
REMARK  214  A    between atoms: _527  and  _530
REMARK  215  A    between atoms: _530  and  _531
REMARK  216  A    between atoms: _536  and  _537
REMARK  217  A    between atoms: _539  and  _541
REMARK  218  A    between atoms: _541  and  _542
REMARK  219  A    between atoms: _541  and  _544
REMARK  220  A    between atoms: _544  and  _545
REMARK  221  A    between atoms: _548  and  _550
REMARK  222  A    between atoms: _550  and  _551
REMARK  223  A    between atoms: _554  and  _556
REMARK  224  A    between atoms: _556  and  _557
REMARK  225  A    between atoms: _560  and  _562
REMARK  226  A    between atoms: _562  and  _563
REMARK  227  A    between atoms: _562  and  _565
REMARK  228  A    between atoms: _565  and  _566
REMARK  229  A    between atoms: _569  and  _571
REMARK  230  A    between atoms: _571  and  _572
REMARK  231  A    between atoms: _571  and  _574
REMARK  232  A    between atoms: _574  and  _575
REMARK  233  A    between atoms: _578  and  _580
REMARK  234  A    between atoms: _580  and  _581
REMARK  235  A    between atoms: _580  and  _583
REMARK  236  A    between atoms: _583  and  _584
REMARK  237  A    between atoms: _587  and  _589
REMARK  238  A    between atoms: _589  and  _590
REMARK  239  A    between atoms: _589  and  _592
REMARK  240  A    between atoms: _592  and  _593
REMARK  241  A    between atoms: _593  and  _594
REMARK  242  A    between atoms: _594  and  _595
REMARK  243  A    between atoms: _595  and  _596
REMARK  244  A    between atoms: _600  and  _602
REMARK  245  A    between atoms: _602  and  _603
REMARK  246  A    between atoms: _602  and  _605
REMARK  247  A    between atoms: _605  and  _606
REMARK  248  A    between atoms: _611  and  _613
REMARK  249  A    between atoms: _613  and  _614
REMARK  250  A    between atoms: _613  and  _616
REMARK  251  A    between atoms: _616  and  _617
REMARK  252  A    between atoms: _617  and  _618
REMARK  253  A    between atoms: _618  and  _619
REMARK  254  A    between atoms: _619  and  _620
REMARK  255  A    between atoms: _624  and  _626
REMARK  256  A    between atoms: _626  and  _627
REMARK  257  A    between atoms: _626  and  _629
REMARK  258  A    between atoms: _629  and  _630
REMARK  259  A    between atoms: _640  and  _642
REMARK  260  A    between atoms: _642  and  _643
REMARK  261  A    between atoms: _646  and  _648
REMARK  262  A    between atoms: _648  and  _649
REMARK  263  A    between atoms: _648  and  _651
REMARK  264  A    between atoms: _651  and  _652
REMARK  265  A    between atoms: _652  and  _653
REMARK  266  A    between atoms: _656  and  _658
REMARK  267  A    between atoms: _658  and  _659
REMARK  268  A    between atoms: _658  and  _661
REMARK  269  A    between atoms: _661  and  _662
REMARK  270  A    between atoms: _662  and  _663
REMARK  271  A    between atoms: _666  and  _668
REMARK  272  A    between atoms: _668  and  _669
REMARK  273  A    between atoms: _668  and  _671
REMARK  274  A    between atoms: _671  and  _672
REMARK  275  A    between atoms: _672  and  _673
REMARK  276  A    between atoms: _673  and  _674
REMARK  277  A    between atoms: _683  and  _685
REMARK  278  A    between atoms: _685  and  _686
REMARK  279  A    between atoms: _685  and  _688
REMARK  280  A    between atoms: _688  and  _689
REMARK  281  A    between atoms: _692  and  _694
REMARK  282  A    between atoms: _694  and  _695
REMARK  283  A    between atoms: _694  and  _697
REMARK  284  A    between atoms: _697  and  _698
REMARK  285  A    between atoms: _698  and  _699
REMARK  286  A    between atoms: _699  and  _700
REMARK  287  A    between atoms: _709  and  _711
REMARK  288  A    between atoms: _711  and  _712
REMARK  289  A    between atoms: _715  and  _717
REMARK  290  A    between atoms: _717  and  _718
REMARK  291  A    between atoms: _717  and  _720
REMARK  292  A    between atoms: _720  and  _721
REMARK  293  A    between atoms: _726  and  _727
REMARK  294  A    between atoms: _729  and  _731
REMARK  295  A    between atoms: _731  and  _732
REMARK  296  A    between atoms: _731  and  _734
REMARK  297  A    between atoms: _734  and  _735
REMARK  298  A    between atoms: _738  and  _740
REMARK  299  A    between atoms: _740  and  _741
REMARK  300  A    between atoms: _740  and  _743
REMARK  301  A    between atoms: _743  and  _744
REMARK  302  A    between atoms: _747  and  _749
REMARK  303  A    between atoms: _749  and  _750
REMARK  304  A    between atoms: _749  and  _752
REMARK  305  A    between atoms: _752  and  _753
REMARK  306  A    between atoms: _754  and  _756
REMARK  307  A    between atoms: _756  and  _757
REMARK  308  A    between atoms: _756  and  _759
REMARK  309  A    between atoms: _762  and  _764
REMARK  310  A    between atoms: _764  and  _765
REMARK  311  A    between atoms: _764  and  _767
REMARK  312  A    between atoms: _767  and  _768
REMARK  313  A    between atoms: _768  and  _769
REMARK  314  A    between atoms: _772  and  _774
REMARK  315  A    between atoms: _774  and  _775
REMARK  316  A    between atoms: _774  and  _777
REMARK  317  A    between atoms: _777  and  _778
REMARK  318  A    between atoms: _788  and  _790
REMARK  319  A    between atoms: _790  and  _791
REMARK  320  A    between atoms: _790  and  _793
REMARK  321  A    between atoms: _793  and  _794
REMARK  322  A    between atoms: _797  and  _799
REMARK  323  A    between atoms: _799  and  _800
REMARK  324  A    between atoms: _799  and  _802
REMARK  325  A    between atoms: _802  and  _803
REMARK  326  A    between atoms: _808  and  _809
REMARK                            x       y       z     vdW  Elec       q    Type
REMARK                         _______ _______ _______ _____ _____    ______ ____
ROOT
ATOM      1  O   HOH     1      -2.517  -0.934  -9.696  0.00  0.00    +0.000 OA
ENDROOT
TORSDOF 0
REMARK  Name = ../refined-set-2016/3p9m/3p9m_pocket.pdb
REMARK  326 active torsions:
REMARK  status: ('A' for Active; 'I' for Inactive)
REMARK    1  A    between atoms: _1  and  _3
REMARK    2  A    between atoms: _3  and  _4
REMARK    3  A    between atoms: _3  and  _6
REMARK    4  A    between atoms: _6  and  _7
REMARK    5  A    between atoms: _10  and  _12
REMARK    6  A    between atoms: _12  and  _13
REMARK    7  A    between atoms: _12  and  _15
REMARK    8  A    between atoms: _15  and  _16
REMARK    9  A    between atoms: _16  and  _17
REMARK   10  A    between atoms: _17  and  _18
REMARK   11  A    between atoms: _27  and  _29
REMARK   12  A    between atoms: _29  and  _30
REMARK   13  A    between atoms: _29  and  _32
REMARK   14  A    between atoms: _32  and  _33
REMARK   15  A    between atoms: _38  and  _39
REMARK   16  A    between atoms: _41  and  _43
REMARK   17  A    between atoms: _43  and  _44
REMARK   18  A    between atoms: _43  and  _46
REMARK   19  A    between atoms: _46  and  _47
REMARK   20  A    between atoms: _53  and  _55
REMARK   21  A    between atoms: _55  and  _56
REMARK   22  A    between atoms: _55  and  _58
REMARK   23  A    between atoms: _61  and  _63
REMARK   24  A    between atoms: _63  and  _64
REMARK   25  A    between atoms: _63  and  _66
REMARK   26  A    between atoms: _66  and  _67
REMARK   27  A    between atoms: _70  and  _72
REMARK   28  A    between atoms: _72  and  _73
REMARK   29  A    between atoms: _72  and  _75
REMARK   30  A    between atoms: _75  and  _76
REMARK   31  A    between atoms: _81  and  _82
REMARK   32  A    between atoms: _84  and  _86
REMARK   33  A    between atoms: _86  and  _87
REMARK   34  A    between atoms: _86  and  _89
REMARK   35  A    between atoms: _89  and  _90
REMARK   36  A    between atoms: _90  and  _91
REMARK   37  A    between atoms: _93  and  _95
REMARK   38  A    between atoms: _95  and  _96
REMARK   39  A    between atoms: _95  and  _98
REMARK   40  A    between atoms: _98  and  _99
REMARK   41  A    between atoms: _99  and  _100
REMARK   42  A    between atoms: _103  and  _105
REMARK   43  A    between atoms: _105  and  _106
REMARK   44  A    between atoms: _105  and  _108
REMARK   45  A    between atoms: _111  and  _113
REMARK   46  A    between atoms: _113  and  _114
REMARK   47  A    between atoms: _116  and  _118
REMARK   48  A    between atoms: _118  and  _119
REMARK   49  A    between atoms: _118  and  _121
REMARK   50  A    between atoms: _121  and  _122
REMARK   51  A    between atoms: _128  and  _130
REMARK   52  A    between atoms: _130  and  _131
REMARK   53  A    between atoms: _130  and  _133
REMARK   54  A    between atoms: _136  and  _138
REMARK   55  A    between atoms: _138  and  _139
REMARK   56  A    between atoms: _138  and  _141
REMARK   57  A    between atoms: _141  and  _142
REMARK   58  A    between atoms: _148  and  _150
REMARK   59  A    between atoms: _150  and  _151
REMARK   60  A    between atoms: _150  and  _153
REMARK   61  A    between atoms: _153  and  _154
REMARK   62  A    between atoms: _159  and  _160
REMARK   63  A    between atoms: _162  and  _164
REMARK   64  A    between atoms: _164  and  _165
REMARK   65  A    between atoms: _164  and  _167
REMARK   66  A    between atoms: _167  and  _168
REMARK   67  A    between atoms: _168  and  _169
REMARK   68  A    between atoms: _171  and  _173
REMARK   69  A    between atoms: _173  and  _174
REMARK   70  A    between atoms: _173  and  _176
REMARK   71  A    between atoms: _176  and  _177
REMARK   72  A    between atoms: _182  and  _183
REMARK   73  A    between atoms: _185  and  _187
REMARK   74  A    between atoms: _187  and  _188
REMARK   75  A    between atoms: _187  and  _190
REMARK   76  A    between atoms: _190  and  _191
REMARK   77  A    between atoms: _191  and  _192
REMARK   78  A    between atoms: _192  and  _193
REMARK   79  A    between atoms: _202  and  _204
REMARK   80  A    between atoms: _204  and  _205
REMARK   81  A    between atoms: _204  and  _207
REMARK   82  A    between atoms: _207  and  _208
REMARK   83  A    between atoms: _208  and  _209
REMARK   84  A    between atoms: _212  and  _214
REMARK   85  A    between atoms: _214  and  _215
REMARK   86  A    between atoms: _214  and  _217
REMARK   87  A    between atoms: _217  and  _218
REMARK   88  A    between atoms: _218  and  _219
REMARK   89  A    between atoms: _219  and  _220
REMARK   90  A    between atoms: _220  and  _221
REMARK   91  A    between atoms: _225  and  _227
REMARK   92  A    between atoms: _227  and  _228
REMARK   93  A    between atoms: _231  and  _233
REMARK   94  A    between atoms: _233  and  _234
REMARK   95  A    between atoms: _236  and  _238
REMARK   96  A    between atoms: _238  and  _239
REMARK   97  A    between atoms: _238  and  _241
REMARK   98  A    between atoms: _241  and  _242
REMARK   99  A    between atoms: _247  and  _249
REMARK  100  A    between atoms: _249  and  _250
REMARK  101  A    between atoms: _249  and  _252
REMARK  102  A    between atoms: _252  and  _253
REMARK  103  A    between atoms: _253  and  _254
REMARK  104  A    between atoms: _257  and  _259
REMARK  105  A    between atoms: _259  and  _260
REMARK  106  A    between atoms: _259  and  _262
REMARK  107  A    between atoms: _262  and  _263
REMARK  108  A    between atoms: _263  and  _264
REMARK  109  A    between atoms: _269  and  _271
REMARK  110  A    between atoms: _271  and  _272
REMARK  111  A    between atoms: _271  and  _274
REMARK  112  A    between atoms: _274  and  _275
REMARK  113  A    between atoms: _277  and  _279
REMARK  114  A    between atoms: _279  and  _280
REMARK  115  A    between atoms: _279  and  _282
REMARK  116  A    between atoms: _282  and  _283
REMARK  117  A    between atoms: _289  and  _291
REMARK  118  A    between atoms: _291  and  _292
REMARK  119  A    between atoms: _291  and  _294
REMARK  120  A    between atoms: _294  and  _295
REMARK  121  A    between atoms: _295  and  _296
REMARK  122  A    between atoms: _296  and  _297
REMARK  123  A    between atoms: _306  and  _308
REMARK  124  A    between atoms: _308  and  _309
REMARK  125  A    between atoms: _308  and  _311
REMARK  126  A    between atoms: _314  and  _316
REMARK  127  A    between atoms: _316  and  _317
REMARK  128  A    between atoms: _316  and  _319
REMARK  129  A    between atoms: _319  and  _320
REMARK  130  A    between atoms: _323  and  _325
REMARK  131  A    between atoms: _325  and  _326
REMARK  132  A    between atoms: _325  and  _328
REMARK  133  A    between atoms: _328  and  _329
REMARK  134  A    between atoms: _332  and  _334
REMARK  135  A    between atoms: _334  and  _335
REMARK  136  A    between atoms: _334  and  _337
REMARK  137  A    between atoms: _337  and  _338
REMARK  138  A    between atoms: _338  and  _339
REMARK  139  A    between atoms: _339  and  _340
REMARK  140  A    between atoms: _349  and  _351
REMARK  141  A    between atoms: _351  and  _352
REMARK  142  A    between atoms: _351  and  _354
REMARK  143  A    between atoms: _354  and  _355
REMARK  144  A    between atoms: _358  and  _360
REMARK  145  A    between atoms: _360  and  _361
REMARK  146  A    between atoms: _360  and  _363
REMARK  147  A    between atoms: _363  and  _364
REMARK  148  A    between atoms: _367  and  _369
REMARK  149  A    between atoms: _369  and  _370
REMARK  150  A    between atoms: _369  and  _372
REMARK  151  A    between atoms: _372  and  _373
REMARK  152  A    between atoms: _378  and  _379
REMARK  153  A    between atoms: _381  and  _383
REMARK  154  A    between atoms: _383  and  _384
REMARK  155  A    between atoms: _383  and  _386
REMARK  156  A    between atoms: _386  and  _387
REMARK  157  A    between atoms: _392  and  _393
REMARK  158  A    between atoms: _395  and  _397
REMARK  159  A    between atoms: _397  and  _398
REMARK  160  A    between atoms: _397  and  _400
REMARK  161  A    between atoms: _400  and  _401
REMARK  162  A    between atoms: _404  and  _406
REMARK  163  A    between atoms: _406  and  _407
REMARK  164  A    between atoms: _406  and  _409
REMARK  165  A    between atoms: _409  and  _410
REMARK  166  A    between atoms: _410  and  _411
REMARK  167  A    between atoms: _416  and  _418
REMARK  168  A    between atoms: _418  and  _419
REMARK  169  A    between atoms: _418  and  _421
REMARK  170  A    between atoms: _424  and  _426
REMARK  171  A    between atoms: _426  and  _427
REMARK  172  A    between atoms: _426  and  _429
REMARK  173  A    between atoms: _429  and  _430
REMARK  174  A    between atoms: _433  and  _435
REMARK  175  A    between atoms: _435  and  _436
REMARK  176  A    between atoms: _435  and  _438
REMARK  177  A    between atoms: _438  and  _439
REMARK  178  A    between atoms: _441  and  _443
REMARK  179  A    between atoms: _443  and  _444
REMARK  180  A    between atoms: _446  and  _448
REMARK  181  A    between atoms: _448  and  _449
REMARK  182  A    between atoms: _448  and  _451
REMARK  183  A    between atoms: _451  and  _452
REMARK  184  A    between atoms: _452  and  _753
REMARK  185  A    between atoms: _453  and  _455
REMARK  186  A    between atoms: _455  and  _456
REMARK  187  A    between atoms: _455  and  _458
REMARK  188  A    between atoms: _458  and  _459
REMARK  189  A    between atoms: _464  and  _465
REMARK  190  A    between atoms: _467  and  _469
REMARK  191  A    between atoms: _469  and  _470
REMARK  192  A    between atoms: _469  and  _472
REMARK  193  A    between atoms: _472  and  _473
REMARK  194  A    between atoms: _473  and  _474
REMARK  195  A    between atoms: _479  and  _481
REMARK  196  A    between atoms: _481  and  _482
REMARK  197  A    between atoms: _481  and  _484
REMARK  198  A    between atoms: _484  and  _485
REMARK  199  A    between atoms: _485  and  _486
REMARK  200  A    between atoms: _491  and  _493
REMARK  201  A    between atoms: _493  and  _494
REMARK  202  A    between atoms: _493  and  _496
REMARK  203  A    between atoms: _496  and  _497
REMARK  204  A    between atoms: _502  and  _503
REMARK  205  A    between atoms: _505  and  _507
REMARK  206  A    between atoms: _507  and  _508
REMARK  207  A    between atoms: _511  and  _513
REMARK  208  A    between atoms: _513  and  _514
REMARK  209  A    between atoms: _513  and  _516
REMARK  210  A    between atoms: _516  and  _517
REMARK  211  A    between atoms: _522  and  _523
REMARK  212  A    between atoms: _525  and  _527
REMARK  213  A    between atoms: _527  and  _528
REMARK  214  A    between atoms: _527  and  _530
REMARK  215  A    between atoms: _530  and  _531
REMARK  216  A    between atoms: _536  and  _537
REMARK  217  A    between atoms: _539  and  _541
REMARK  218  A    between atoms: _541  and  _542
REMARK  219  A    between atoms: _541  and  _544
REMARK  220  A    between atoms: _544  and  _545
REMARK  221  A    between atoms: _548  and  _550
REMARK  222  A    between atoms: _550  and  _551
REMARK  223  A    between atoms: _554  and  _556
REMARK  224  A    between atoms: _556  and  _557
REMARK  225  A    between atoms: _560  and  _562
REMARK  226  A    between atoms: _562  and  _563
REMARK  227  A    between atoms: _562  and  _565
REMARK  228  A    between atoms: _565  and  _566
REMARK  229  A    between atoms: _569  and  _571
REMARK  230  A    between atoms: _571  and  _572
REMARK  231  A    between atoms: _571  and  _574
REMARK  232  A    between atoms: _574  and  _575
REMARK  233  A    between atoms: _578  and  _580
REMARK  234  A    between atoms: _580  and  _581
REMARK  235  A    between atoms: _580  and  _583
REMARK  236  A    between atoms: _583  and  _584
REMARK  237  A    between atoms: _587  and  _589
REMARK  238  A    between atoms: _589  and  _590
REMARK  239  A    between atoms: _589  and  _592
REMARK  240  A    between atoms: _592  and  _593
REMARK  241  A    between atoms: _593  and  _594
REMARK  242  A    between atoms: _594  and  _595
REMARK  243  A    between atoms: _595  and  _596
REMARK  244  A    between atoms: _600  and  _602
REMARK  245  A    between atoms: _602  and  _603
REMARK  246  A    between atoms: _602  and  _605
REMARK  247  A    between atoms: _605  and  _606
REMARK  248  A    between atoms: _611  and  _613
REMARK  249  A    between atoms: _613  and  _614
REMARK  250  A    between atoms: _613  and  _616
REMARK  251  A    between atoms: _616  and  _617
REMARK  252  A    between atoms: _617  and  _618
REMARK  253  A    between atoms: _618  and  _619
REMARK  254  A    between atoms: _619  and  _620
REMARK  255  A    between atoms: _624  and  _626
REMARK  256  A    between atoms: _626  and  _627
REMARK  257  A    between atoms: _626  and  _629
REMARK  258  A    between atoms: _629  and  _630
REMARK  259  A    between atoms: _640  and  _642
REMARK  260  A    between atoms: _642  and  _643
REMARK  261  A    between atoms: _646  and  _648
REMARK  262  A    between atoms: _648  and  _649
REMARK  263  A    between atoms: _648  and  _651
REMARK  264  A    between atoms: _651  and  _652
REMARK  265  A    between atoms: _652  and  _653
REMARK  266  A    between atoms: _656  and  _658
REMARK  267  A    between atoms: _658  and  _659
REMARK  268  A    between atoms: _658  and  _661
REMARK  269  A    between atoms: _661  and  _662
REMARK  270  A    between atoms: _662  and  _663
REMARK  271  A    between atoms: _666  and  _668
REMARK  272  A    between atoms: _668  and  _669
REMARK  273  A    between atoms: _668  and  _671
REMARK  274  A    between atoms: _671  and  _672
REMARK  275  A    between atoms: _672  and  _673
REMARK  276  A    between atoms: _673  and  _674
REMARK  277  A    between atoms: _683  and  _685
REMARK  278  A    between atoms: _685  and  _686
REMARK  279  A    between atoms: _685  and  _688
REMARK  280  A    between atoms: _688  and  _689
REMARK  281  A    between atoms: _692  and  _694
REMARK  282  A    between atoms: _694  and  _695
REMARK  283  A    between atoms: _694  and  _697
REMARK  284  A    between atoms: _697  and  _698
REMARK  285  A    between atoms: _698  and  _699
REMARK  286  A    between atoms: _699  and  _700
REMARK  287  A    between atoms: _709  and  _711
REMARK  288  A    between atoms: _711  and  _712
REMARK  289  A    between atoms: _715  and  _717
REMARK  290  A    between atoms: _717  and  _718
REMARK  291  A    between atoms: _717  and  _720
REMARK  292  A    between atoms: _720  and  _721
REMARK  293  A    between atoms: _726  and  _727
REMARK  294  A    between atoms: _729  and  _731
REMARK  295  A    between atoms: _731  and  _732
REMARK  296  A    between atoms: _731  and  _734
REMARK  297  A    between atoms: _734  and  _735
REMARK  298  A    between atoms: _738  and  _740
REMARK  299  A    between atoms: _740  and  _741
REMARK  300  A    between atoms: _740  and  _743
REMARK  301  A    between atoms: _743  and  _744
REMARK  302  A    between atoms: _747  and  _749
REMARK  303  A    between atoms: _749  and  _750
REMARK  304  A    between atoms: _749  and  _752
REMARK  305  A    between atoms: _752  and  _753
REMARK  306  A    between atoms: _754  and  _756
REMARK  307  A    between atoms: _756  and  _757
REMARK  308  A    between atoms: _756  and  _759
REMARK  309  A    between atoms: _762  and  _764
REMARK  310  A    between atoms: _764  and  _765
REMARK  311  A    between atoms: _764  and  _767
REMARK  312  A    between atoms: _767  and  _768
REMARK  313  A    between atoms: _768  and  _769
REMARK  314  A    between atoms: _772  and  _774
REMARK  315  A    between atoms: _774  and  _775
REMARK  316  A    between atoms: _774  and  _777
REMARK  317  A    between atoms: _777  and  _778
REMARK  318  A    between atoms: _788  and  _790
REMARK  319  A    between atoms: _790  and  _791
REMARK  320  A    between atoms: _790  and  _793
REMARK  321  A    between atoms: _793  and  _794
REMARK  322  A    between atoms: _797  and  _799
REMARK  323  A    between atoms: _799  and  _800
REMARK  324  A    between atoms: _799  and  _802
REMARK  325  A    between atoms: _802  and  _803
REMARK  326  A    between atoms: _808  and  _809
REMARK                            x       y       z     vdW  Elec       q    Type
REMARK                         _______ _______ _______ _____ _____    ______ ____
ROOT
ATOM      1  O   HOH     1      -2.725  -3.160   0.227  0.00  0.00    +0.000 OA
ENDROOT
TORSDOF 0
REMARK  Name = ../refined-set-2016/3p9m/3p9m_pocket.pdb
REMARK  326 active torsions:
REMARK  status: ('A' for Active; 'I' for Inactive)
REMARK    1  A    between atoms: _1  and  _3
REMARK    2  A    between atoms: _3  and  _4
REMARK    3  A    between atoms: _3  and  _6
REMARK    4  A    between atoms: _6  and  _7
REMARK    5  A    between atoms: _10  and  _12
REMARK    6  A    between atoms: _12  and  _13
REMARK    7  A    between atoms: _12  and  _15
REMARK    8  A    between atoms: _15  and  _16
REMARK    9  A    between atoms: _16  and  _17
REMARK   10  A    between atoms: _17  and  _18
REMARK   11  A    between atoms: _27  and  _29
REMARK   12  A    between atoms: _29  and  _30
REMARK   13  A    between atoms: _29  and  _32
REMARK   14  A    between atoms: _32  and  _33
REMARK   15  A    between atoms: _38  and  _39
REMARK   16  A    between atoms: _41  and  _43
REMARK   17  A    between atoms: _43  and  _44
REMARK   18  A    between atoms: _43  and  _46
REMARK   19  A    between atoms: _46  and  _47
REMARK   20  A    between atoms: _53  and  _55
REMARK   21  A    between atoms: _55  and  _56
REMARK   22  A    between atoms: _55  and  _58
REMARK   23  A    between atoms: _61  and  _63
REMARK   24  A    between atoms: _63  and  _64
REMARK   25  A    between atoms: _63  and  _66
REMARK   26  A    between atoms: _66  and  _67
REMARK   27  A    between atoms: _70  and  _72
REMARK   28  A    between atoms: _72  and  _73
REMARK   29  A    between atoms: _72  and  _75
REMARK   30  A    between atoms: _75  and  _76
REMARK   31  A    between atoms: _81  and  _82
REMARK   32  A    between atoms: _84  and  _86
REMARK   33  A    between atoms: _86  and  _87
REMARK   34  A    between atoms: _86  and  _89
REMARK   35  A    between atoms: _89  and  _90
REMARK   36  A    between atoms: _90  and  _91
REMARK   37  A    between atoms: _93  and  _95
REMARK   38  A    between atoms: _95  and  _96
REMARK   39  A    between atoms: _95  and  _98
REMARK   40  A    between atoms: _98  and  _99
REMARK   41  A    between atoms: _99  and  _100
REMARK   42  A    between atoms: _103  and  _105
REMARK   43  A    between atoms: _105  and  _106
REMARK   44  A    between atoms: _105  and  _108
REMARK   45  A    between atoms: _111  and  _113
REMARK   46  A    between atoms: _113  and  _114
REMARK   47  A    between atoms: _116  and  _118
REMARK   48  A    between atoms: _118  and  _119
REMARK   49  A    between atoms: _118  and  _121
REMARK   50  A    between atoms: _121  and  _122
REMARK   51  A    between atoms: _128  and  _130
REMARK   52  A    between atoms: _130  and  _131
REMARK   53  A    between atoms: _130  and  _133
REMARK   54  A    between atoms: _136  and  _138
REMARK   55  A    between atoms: _138  and  _139
REMARK   56  A    between atoms: _138  and  _141
REMARK   57  A    between atoms: _141  and  _142
REMARK   58  A    between atoms: _148  and  _150
REMARK   59  A    between atoms: _150  and  _151
REMARK   60  A    between atoms: _150  and  _153
REMARK   61  A    between atoms: _153  and  _154
REMARK   62  A    between atoms: _159  and  _160
REMARK   63  A    between atoms: _162  and  _164
REMARK   64  A    between atoms: _164  and  _165
REMARK   65  A    between atoms: _164  and  _167
REMARK   66  A    between atoms: _167  and  _168
REMARK   67  A    between atoms: _168  and  _169
REMARK   68  A    between atoms: _171  and  _173
REMARK   69  A    between atoms: _173  and  _174
REMARK   70  A    between atoms: _173  and  _176
REMARK   71  A    between atoms: _176  and  _177
REMARK   72  A    between atoms: _182  and  _183
REMARK   73  A    between atoms: _185  and  _187
REMARK   74  A    between atoms: _187  and  _188
REMARK   75  A    between atoms: _187  and  _190
REMARK   76  A    between atoms: _190  and  _191
REMARK   77  A    between atoms: _191  and  _192
REMARK   78  A    between atoms: _192  and  _193
REMARK   79  A    between atoms: _202  and  _204
REMARK   80  A    between atoms: _204  and  _205
REMARK   81  A    between atoms: _204  and  _207
REMARK   82  A    between atoms: _207  and  _208
REMARK   83  A    between atoms: _208  and  _209
REMARK   84  A    between atoms: _212  and  _214
REMARK   85  A    between atoms: _214  and  _215
REMARK   86  A    between atoms: _214  and  _217
REMARK   87  A    between atoms: _217  and  _218
REMARK   88  A    between atoms: _218  and  _219
REMARK   89  A    between atoms: _219  and  _220
REMARK   90  A    between atoms: _220  and  _221
REMARK   91  A    between atoms: _225  and  _227
REMARK   92  A    between atoms: _227  and  _228
REMARK   93  A    between atoms: _231  and  _233
REMARK   94  A    between atoms: _233  and  _234
REMARK   95  A    between atoms: _236  and  _238
REMARK   96  A    between atoms: _238  and  _239
REMARK   97  A    between atoms: _238  and  _241
REMARK   98  A    between atoms: _241  and  _242
REMARK   99  A    between atoms: _247  and  _249
REMARK  100  A    between atoms: _249  and  _250
REMARK  101  A    between atoms: _249  and  _252
REMARK  102  A    between atoms: _252  and  _253
REMARK  103  A    between atoms: _253  and  _254
REMARK  104  A    between atoms: _257  and  _259
REMARK  105  A    between atoms: _259  and  _260
REMARK  106  A    between atoms: _259  and  _262
REMARK  107  A    between atoms: _262  and  _263
REMARK  108  A    between atoms: _263  and  _264
REMARK  109  A    between atoms: _269  and  _271
REMARK  110  A    between atoms: _271  and  _272
REMARK  111  A    between atoms: _271  and  _274
REMARK  112  A    between atoms: _274  and  _275
REMARK  113  A    between atoms: _277  and  _279
REMARK  114  A    between atoms: _279  and  _280
REMARK  115  A    between atoms: _279  and  _282
REMARK  116  A    between atoms: _282  and  _283
REMARK  117  A    between atoms: _289  and  _291
REMARK  118  A    between atoms: _291  and  _292
REMARK  119  A    between atoms: _291  and  _294
REMARK  120  A    between atoms: _294  and  _295
REMARK  121  A    between atoms: _295  and  _296
REMARK  122  A    between atoms: _296  and  _297
REMARK  123  A    between atoms: _306  and  _308
REMARK  124  A    between atoms: _308  and  _309
REMARK  125  A    between atoms: _308  and  _311
REMARK  126  A    between atoms: _314  and  _316
REMARK  127  A    between atoms: _316  and  _317
REMARK  128  A    between atoms: _316  and  _319
REMARK  129  A    between atoms: _319  and  _320
REMARK  130  A    between atoms: _323  and  _325
REMARK  131  A    between atoms: _325  and  _326
REMARK  132  A    between atoms: _325  and  _328
REMARK  133  A    between atoms: _328  and  _329
REMARK  134  A    between atoms: _332  and  _334
REMARK  135  A    between atoms: _334  and  _335
REMARK  136  A    between atoms: _334  and  _337
REMARK  137  A    between atoms: _337  and  _338
REMARK  138  A    between atoms: _338  and  _339
REMARK  139  A    between atoms: _339  and  _340
REMARK  140  A    between atoms: _349  and  _351
REMARK  141  A    between atoms: _351  and  _352
REMARK  142  A    between atoms: _351  and  _354
REMARK  143  A    between atoms: _354  and  _355
REMARK  144  A    between atoms: _358  and  _360
REMARK  145  A    between atoms: _360  and  _361
REMARK  146  A    between atoms: _360  and  _363
REMARK  147  A    between atoms: _363  and  _364
REMARK  148  A    between atoms: _367  and  _369
REMARK  149  A    between atoms: _369  and  _370
REMARK  150  A    between atoms: _369  and  _372
REMARK  151  A    between atoms: _372  and  _373
REMARK  152  A    between atoms: _378  and  _379
REMARK  153  A    between atoms: _381  and  _383
REMARK  154  A    between atoms: _383  and  _384
REMARK  155  A    between atoms: _383  and  _386
REMARK  156  A    between atoms: _386  and  _387
REMARK  157  A    between atoms: _392  and  _393
REMARK  158  A    between atoms: _395  and  _397
REMARK  159  A    between atoms: _397  and  _398
REMARK  160  A    between atoms: _397  and  _400
REMARK  161  A    between atoms: _400  and  _401
REMARK  162  A    between atoms: _404  and  _406
REMARK  163  A    between atoms: _406  and  _407
REMARK  164  A    between atoms: _406  and  _409
REMARK  165  A    between atoms: _409  and  _410
REMARK  166  A    between atoms: _410  and  _411
REMARK  167  A    between atoms: _416  and  _418
REMARK  168  A    between atoms: _418  and  _419
REMARK  169  A    between atoms: _418  and  _421
REMARK  170  A    between atoms: _424  and  _426
REMARK  171  A    between atoms: _426  and  _427
REMARK  172  A    between atoms: _426  and  _429
REMARK  173  A    between atoms: _429  and  _430
REMARK  174  A    between atoms: _433  and  _435
REMARK  175  A    between atoms: _435  and  _436
REMARK  176  A    between atoms: _435  and  _438
REMARK  177  A    between atoms: _438  and  _439
REMARK  178  A    between atoms: _441  and  _443
REMARK  179  A    between atoms: _443  and  _444
REMARK  180  A    between atoms: _446  and  _448
REMARK  181  A    between atoms: _448  and  _449
REMARK  182  A    between atoms: _448  and  _451
REMARK  183  A    between atoms: _451  and  _452
REMARK  184  A    between atoms: _452  and  _753
REMARK  185  A    between atoms: _453  and  _455
REMARK  186  A    between atoms: _455  and  _456
REMARK  187  A    between atoms: _455  and  _458
REMARK  188  A    between atoms: _458  and  _459
REMARK  189  A    between atoms: _464  and  _465
REMARK  190  A    between atoms: _467  and  _469
REMARK  191  A    between atoms: _469  and  _470
REMARK  192  A    between atoms: _469  and  _472
REMARK  193  A    between atoms: _472  and  _473
REMARK  194  A    between atoms: _473  and  _474
REMARK  195  A    between atoms: _479  and  _481
REMARK  196  A    between atoms: _481  and  _482
REMARK  197  A    between atoms: _481  and  _484
REMARK  198  A    between atoms: _484  and  _485
REMARK  199  A    between atoms: _485  and  _486
REMARK  200  A    between atoms: _491  and  _493
REMARK  201  A    between atoms: _493  and  _494
REMARK  202  A    between atoms: _493  and  _496
REMARK  203  A    between atoms: _496  and  _497
REMARK  204  A    between atoms: _502  and  _503
REMARK  205  A    between atoms: _505  and  _507
REMARK  206  A    between atoms: _507  and  _508
REMARK  207  A    between atoms: _511  and  _513
REMARK  208  A    between atoms: _513  and  _514
REMARK  209  A    between atoms: _513  and  _516
REMARK  210  A    between atoms: _516  and  _517
REMARK  211  A    between atoms: _522  and  _523
REMARK  212  A    between atoms: _525  and  _527
REMARK  213  A    between atoms: _527  and  _528
REMARK  214  A    between atoms: _527  and  _530
REMARK  215  A    between atoms: _530  and  _531
REMARK  216  A    between atoms: _536  and  _537
REMARK  217  A    between atoms: _539  and  _541
REMARK  218  A    between atoms: _541  and  _542
REMARK  219  A    between atoms: _541  and  _544
REMARK  220  A    between atoms: _544  and  _545
REMARK  221  A    between atoms: _548  and  _550
REMARK  222  A    between atoms: _550  and  _551
REMARK  223  A    between atoms: _554  and  _556
REMARK  224  A    between atoms: _556  and  _557
REMARK  225  A    between atoms: _560  and  _562
REMARK  226  A    between atoms: _562  and  _563
REMARK  227  A    between atoms: _562  and  _565
REMARK  228  A    between atoms: _565  and  _566
REMARK  229  A    between atoms: _569  and  _571
REMARK  230  A    between atoms: _571  and  _572
REMARK  231  A    between atoms: _571  and  _574
REMARK  232  A    between atoms: _574  and  _575
REMARK  233  A    between atoms: _578  and  _580
REMARK  234  A    between atoms: _580  and  _581
REMARK  235  A    between atoms: _580  and  _583
REMARK  236  A    between atoms: _583  and  _584
REMARK  237  A    between atoms: _587  and  _589
REMARK  238  A    between atoms: _589  and  _590
REMARK  239  A    between atoms: _589  and  _592
REMARK  240  A    between atoms: _592  and  _593
REMARK  241  A    between atoms: _593  and  _594
REMARK  242  A    between atoms: _594  and  _595
REMARK  243  A    between atoms: _595  and  _596
REMARK  244  A    between atoms: _600  and  _602
REMARK  245  A    between atoms: _602  and  _603
REMARK  246  A    between atoms: _602  and  _605
REMARK  247  A    between atoms: _605  and  _606
REMARK  248  A    between atoms: _611  and  _613
REMARK  249  A    between atoms: _613  and  _614
REMARK  250  A    between atoms: _613  and  _616
REMARK  251  A    between atoms: _616  and  _617
REMARK  252  A    between atoms: _617  and  _618
REMARK  253  A    between atoms: _618  and  _619
REMARK  254  A    between atoms: _619  and  _620
REMARK  255  A    between atoms: _624  and  _626
REMARK  256  A    between atoms: _626  and  _627
REMARK  257  A    between atoms: _626  and  _629
REMARK  258  A    between atoms: _629  and  _630
REMARK  259  A    between atoms: _640  and  _642
REMARK  260  A    between atoms: _642  and  _643
REMARK  261  A    between atoms: _646  and  _648
REMARK  262  A    between atoms: _648  and  _649
REMARK  263  A    between atoms: _648  and  _651
REMARK  264  A    between atoms: _651  and  _652
REMARK  265  A    between atoms: _652  and  _653
REMARK  266  A    between atoms: _656  and  _658
REMARK  267  A    between atoms: _658  and  _659
REMARK  268  A    between atoms: _658  and  _661
REMARK  269  A    between atoms: _661  and  _662
REMARK  270  A    between atoms: _662  and  _663
REMARK  271  A    between atoms: _666  and  _668
REMARK  272  A    between atoms: _668  and  _669
REMARK  273  A    between atoms: _668  and  _671
REMARK  274  A    between atoms: _671  and  _672
REMARK  275  A    between atoms: _672  and  _673
REMARK  276  A    between atoms: _673  and  _674
REMARK  277  A    between atoms: _683  and  _685
REMARK  278  A    between atoms: _685  and  _686
REMARK  279  A    between atoms: _685  and  _688
REMARK  280  A    between atoms: _688  and  _689
REMARK  281  A    between atoms: _692  and  _694
REMARK  282  A    between atoms: _694  and  _695
REMARK  283  A    between atoms: _694  and  _697
REMARK  284  A    between atoms: _697  and  _698
REMARK  285  A    between atoms: _698  and  _699
REMARK  286  A    between atoms: _699  and  _700
REMARK  287  A    between atoms: _709  and  _711
REMARK  288  A    between atoms: _711  and  _712
REMARK  289  A    between atoms: _715  and  _717
REMARK  290  A    between atoms: _717  and  _718
REMARK  291  A    between atoms: _717  and  _720
REMARK  292  A    between atoms: _720  and  _721
REMARK  293  A    between atoms: _726  and  _727
REMARK  294  A    between atoms: _729  and  _731
REMARK  295  A    between atoms: _731  and  _732
REMARK  296  A    between atoms: _731  and  _734
REMARK  297  A    between atoms: _734  and  _735
REMARK  298  A    between atoms: _738  and  _740
REMARK  299  A    between atoms: _740  and  _741
REMARK  300  A    between atoms: _740  and  _743
REMARK  301  A    between atoms: _743  and  _744
REMARK  302  A    between atoms: _747  and  _749
REMARK  303  A    between atoms: _749  and  _750
REMARK  304  A    between atoms: _749  and  _752
REMARK  305  A    between atoms: _752  and  _753
REMARK  306  A    between atoms: _754  and  _756
REMARK  307  A    between atoms: _756  and  _757
REMARK  308  A    between atoms: _756  and  _759
REMARK  309  A    between atoms: _762  and  _764
REMARK  310  A    between atoms: _764  and  _765
REMARK  311  A    between atoms: _764  and  _767
REMARK  312  A    between atoms: _767  and  _768
REMARK  313  A    between atoms: _768  and  _769
REMARK  314  A    between atoms: _772  and  _774
REMARK  315  A    between atoms: _774  and  _775
REMARK  316  A    between atoms: _774  and  _777
REMARK  317  A    between atoms: _777  and  _778
REMARK  318  A    between atoms: _788  and  _790
REMARK  319  A    between atoms: _790  and  _791
REMARK  320  A    between atoms: _790  and  _793
REMARK  321  A    between atoms: _793  and  _794
REMARK  322  A    between atoms: _797  and  _799
REMARK  323  A    between atoms: _799  and  _800
REMARK  324  A    between atoms: _799  and  _802
REMARK  325  A    between atoms: _802  and  _803
REMARK  326  A    between atoms: _808  and  _809
REMARK                            x       y       z     vdW  Elec       q    Type
REMARK                         _______ _______ _______ _____ _____    ______ ____
ROOT
ATOM      1  O   HOH     1      -7.313   3.147  -8.575  0.00  0.00    +0.000 OA
ENDROOT
TORSDOF 0
REMARK  Name = ../refined-set-2016/3p9m/3p9m_pocket.pdb
REMARK  326 active torsions:
REMARK  status: ('A' for Active; 'I' for Inactive)
REMARK    1  A    between atoms: _1  and  _3
REMARK    2  A    between atoms: _3  and  _4
REMARK    3  A    between atoms: _3  and  _6
REMARK    4  A    between atoms: _6  and  _7
REMARK    5  A    between atoms: _10  and  _12
REMARK    6  A    between atoms: _12  and  _13
REMARK    7  A    between atoms: _12  and  _15
REMARK    8  A    between atoms: _15  and  _16
REMARK    9  A    between atoms: _16  and  _17
REMARK   10  A    between atoms: _17  and  _18
REMARK   11  A    between atoms: _27  and  _29
REMARK   12  A    between atoms: _29  and  _30
REMARK   13  A    between atoms: _29  and  _32
REMARK   14  A    between atoms: _32  and  _33
REMARK   15  A    between atoms: _38  and  _39
REMARK   16  A    between atoms: _41  and  _43
REMARK   17  A    between atoms: _43  and  _44
REMARK   18  A    between atoms: _43  and  _46
REMARK   19  A    between atoms: _46  and  _47
REMARK   20  A    between atoms: _53  and  _55
REMARK   21  A    between atoms: _55  and  _56
REMARK   22  A    between atoms: _55  and  _58
REMARK   23  A    between atoms: _61  and  _63
REMARK   24  A    between atoms: _63  and  _64
REMARK   25  A    between atoms: _63  and  _66
REMARK   26  A    between atoms: _66  and  _67
REMARK   27  A    between atoms: _70  and  _72
REMARK   28  A    between atoms: _72  and  _73
REMARK   29  A    between atoms: _72  and  _75
REMARK   30  A    between atoms: _75  and  _76
REMARK   31  A    between atoms: _81  and  _82
REMARK   32  A    between atoms: _84  and  _86
REMARK   33  A    between atoms: _86  and  _87
REMARK   34  A    between atoms: _86  and  _89
REMARK   35  A    between atoms: _89  and  _90
REMARK   36  A    between atoms: _90  and  _91
REMARK   37  A    between atoms: _93  and  _95
REMARK   38  A    between atoms: _95  and  _96
REMARK   39  A    between atoms: _95  and  _98
REMARK   40  A    between atoms: _98  and  _99
REMARK   41  A    between atoms: _99  and  _100
REMARK   42  A    between atoms: _103  and  _105
REMARK   43  A    between atoms: _105  and  _106
REMARK   44  A    between atoms: _105  and  _108
REMARK   45  A    between atoms: _111  and  _113
REMARK   46  A    between atoms: _113  and  _114
REMARK   47  A    between atoms: _116  and  _118
REMARK   48  A    between atoms: _118  and  _119
REMARK   49  A    between atoms: _118  and  _121
REMARK   50  A    between atoms: _121  and  _122
REMARK   51  A    between atoms: _128  and  _130
REMARK   52  A    between atoms: _130  and  _131
REMARK   53  A    between atoms: _130  and  _133
REMARK   54  A    between atoms: _136  and  _138
REMARK   55  A    between atoms: _138  and  _139
REMARK   56  A    between atoms: _138  and  _141
REMARK   57  A    between atoms: _141  and  _142
REMARK   58  A    between atoms: _148  and  _150
REMARK   59  A    between atoms: _150  and  _151
REMARK   60  A    between atoms: _150  and  _153
REMARK   61  A    between atoms: _153  and  _154
REMARK   62  A    between atoms: _159  and  _160
REMARK   63  A    between atoms: _162  and  _164
REMARK   64  A    between atoms: _164  and  _165
REMARK   65  A    between atoms: _164  and  _167
REMARK   66  A    between atoms: _167  and  _168
REMARK   67  A    between atoms: _168  and  _169
REMARK   68  A    between atoms: _171  and  _173
REMARK   69  A    between atoms: _173  and  _174
REMARK   70  A    between atoms: _173  and  _176
REMARK   71  A    between atoms: _176  and  _177
REMARK   72  A    between atoms: _182  and  _183
REMARK   73  A    between atoms: _185  and  _187
REMARK   74  A    between atoms: _187  and  _188
REMARK   75  A    between atoms: _187  and  _190
REMARK   76  A    between atoms: _190  and  _191
REMARK   77  A    between atoms: _191  and  _192
REMARK   78  A    between atoms: _192  and  _193
REMARK   79  A    between atoms: _202  and  _204
REMARK   80  A    between atoms: _204  and  _205
REMARK   81  A    between atoms: _204  and  _207
REMARK   82  A    between atoms: _207  and  _208
REMARK   83  A    between atoms: _208  and  _209
REMARK   84  A    between atoms: _212  and  _214
REMARK   85  A    between atoms: _214  and  _215
REMARK   86  A    between atoms: _214  and  _217
REMARK   87  A    between atoms: _217  and  _218
REMARK   88  A    between atoms: _218  and  _219
REMARK   89  A    between atoms: _219  and  _220
REMARK   90  A    between atoms: _220  and  _221
REMARK   91  A    between atoms: _225  and  _227
REMARK   92  A    between atoms: _227  and  _228
REMARK   93  A    between atoms: _231  and  _233
REMARK   94  A    between atoms: _233  and  _234
REMARK   95  A    between atoms: _236  and  _238
REMARK   96  A    between atoms: _238  and  _239
REMARK   97  A    between atoms: _238  and  _241
REMARK   98  A    between atoms: _241  and  _242
REMARK   99  A    between atoms: _247  and  _249
REMARK  100  A    between atoms: _249  and  _250
REMARK  101  A    between atoms: _249  and  _252
REMARK  102  A    between atoms: _252  and  _253
REMARK  103  A    between atoms: _253  and  _254
REMARK  104  A    between atoms: _257  and  _259
REMARK  105  A    between atoms: _259  and  _260
REMARK  106  A    between atoms: _259  and  _262
REMARK  107  A    between atoms: _262  and  _263
REMARK  108  A    between atoms: _263  and  _264
REMARK  109  A    between atoms: _269  and  _271
REMARK  110  A    between atoms: _271  and  _272
REMARK  111  A    between atoms: _271  and  _274
REMARK  112  A    between atoms: _274  and  _275
REMARK  113  A    between atoms: _277  and  _279
REMARK  114  A    between atoms: _279  and  _280
REMARK  115  A    between atoms: _279  and  _282
REMARK  116  A    between atoms: _282  and  _283
REMARK  117  A    between atoms: _289  and  _291
REMARK  118  A    between atoms: _291  and  _292
REMARK  119  A    between atoms: _291  and  _294
REMARK  120  A    between atoms: _294  and  _295
REMARK  121  A    between atoms: _295  and  _296
REMARK  122  A    between atoms: _296  and  _297
REMARK  123  A    between atoms: _306  and  _308
REMARK  124  A    between atoms: _308  and  _309
REMARK  125  A    between atoms: _308  and  _311
REMARK  126  A    between atoms: _314  and  _316
REMARK  127  A    between atoms: _316  and  _317
REMARK  128  A    between atoms: _316  and  _319
REMARK  129  A    between atoms: _319  and  _320
REMARK  130  A    between atoms: _323  and  _325
REMARK  131  A    between atoms: _325  and  _326
REMARK  132  A    between atoms: _325  and  _328
REMARK  133  A    between atoms: _328  and  _329
REMARK  134  A    between atoms: _332  and  _334
REMARK  135  A    between atoms: _334  and  _335
REMARK  136  A    between atoms: _334  and  _337
REMARK  137  A    between atoms: _337  and  _338
REMARK  138  A    between atoms: _338  and  _339
REMARK  139  A    between atoms: _339  and  _340
REMARK  140  A    between atoms: _349  and  _351
REMARK  141  A    between atoms: _351  and  _352
REMARK  142  A    between atoms: _351  and  _354
REMARK  143  A    between atoms: _354  and  _355
REMARK  144  A    between atoms: _358  and  _360
REMARK  145  A    between atoms: _360  and  _361
REMARK  146  A    between atoms: _360  and  _363
REMARK  147  A    between atoms: _363  and  _364
REMARK  148  A    between atoms: _367  and  _369
REMARK  149  A    between atoms: _369  and  _370
REMARK  150  A    between atoms: _369  and  _372
REMARK  151  A    between atoms: _372  and  _373
REMARK  152  A    between atoms: _378  and  _379
REMARK  153  A    between atoms: _381  and  _383
REMARK  154  A    between atoms: _383  and  _384
REMARK  155  A    between atoms: _383  and  _386
REMARK  156  A    between atoms: _386  and  _387
REMARK  157  A    between atoms: _392  and  _393
REMARK  158  A    between atoms: _395  and  _397
REMARK  159  A    between atoms: _397  and  _398
REMARK  160  A    between atoms: _397  and  _400
REMARK  161  A    between atoms: _400  and  _401
REMARK  162  A    between atoms: _404  and  _406
REMARK  163  A    between atoms: _406  and  _407
REMARK  164  A    between atoms: _406  and  _409
REMARK  165  A    between atoms: _409  and  _410
REMARK  166  A    between atoms: _410  and  _411
REMARK  167  A    between atoms: _416  and  _418
REMARK  168  A    between atoms: _418  and  _419
REMARK  169  A    between atoms: _418  and  _421
REMARK  170  A    between atoms: _424  and  _426
REMARK  171  A    between atoms: _426  and  _427
REMARK  172  A    between atoms: _426  and  _429
REMARK  173  A    between atoms: _429  and  _430
REMARK  174  A    between atoms: _433  and  _435
REMARK  175  A    between atoms: _435  and  _436
REMARK  176  A    between atoms: _435  and  _438
REMARK  177  A    between atoms: _438  and  _439
REMARK  178  A    between atoms: _441  and  _443
REMARK  179  A    between atoms: _443  and  _444
REMARK  180  A    between atoms: _446  and  _448
REMARK  181  A    between atoms: _448  and  _449
REMARK  182  A    between atoms: _448  and  _451
REMARK  183  A    between atoms: _451  and  _452
REMARK  184  A    between atoms: _452  and  _753
REMARK  185  A    between atoms: _453  and  _455
REMARK  186  A    between atoms: _455  and  _456
REMARK  187  A    between atoms: _455  and  _458
REMARK  188  A    between atoms: _458  and  _459
REMARK  189  A    between atoms: _464  and  _465
REMARK  190  A    between atoms: _467  and  _469
REMARK  191  A    between atoms: _469  and  _470
REMARK  192  A    between atoms: _469  and  _472
REMARK  193  A    between atoms: _472  and  _473
REMARK  194  A    between atoms: _473  and  _474
REMARK  195  A    between atoms: _479  and  _481
REMARK  196  A    between atoms: _481  and  _482
REMARK  197  A    between atoms: _481  and  _484
REMARK  198  A    between atoms: _484  and  _485
REMARK  199  A    between atoms: _485  and  _486
REMARK  200  A    between atoms: _491  and  _493
REMARK  201  A    between atoms: _493  and  _494
REMARK  202  A    between atoms: _493  and  _496
REMARK  203  A    between atoms: _496  and  _497
REMARK  204  A    between atoms: _502  and  _503
REMARK  205  A    between atoms: _505  and  _507
REMARK  206  A    between atoms: _507  and  _508
REMARK  207  A    between atoms: _511  and  _513
REMARK  208  A    between atoms: _513  and  _514
REMARK  209  A    between atoms: _513  and  _516
REMARK  210  A    between atoms: _516  and  _517
REMARK  211  A    between atoms: _522  and  _523
REMARK  212  A    between atoms: _525  and  _527
REMARK  213  A    between atoms: _527  and  _528
REMARK  214  A    between atoms: _527  and  _530
REMARK  215  A    between atoms: _530  and  _531
REMARK  216  A    between atoms: _536  and  _537
REMARK  217  A    between atoms: _539  and  _541
REMARK  218  A    between atoms: _541  and  _542
REMARK  219  A    between atoms: _541  and  _544
REMARK  220  A    between atoms: _544  and  _545
REMARK  221  A    between atoms: _548  and  _550
REMARK  222  A    between atoms: _550  and  _551
REMARK  223  A    between atoms: _554  and  _556
REMARK  224  A    between atoms: _556  and  _557
REMARK  225  A    between atoms: _560  and  _562
REMARK  226  A    between atoms: _562  and  _563
REMARK  227  A    between atoms: _562  and  _565
REMARK  228  A    between atoms: _565  and  _566
REMARK  229  A    between atoms: _569  and  _571
REMARK  230  A    between atoms: _571  and  _572
REMARK  231  A    between atoms: _571  and  _574
REMARK  232  A    between atoms: _574  and  _575
REMARK  233  A    between atoms: _578  and  _580
REMARK  234  A    between atoms: _580  and  _581
REMARK  235  A    between atoms: _580  and  _583
REMARK  236  A    between atoms: _583  and  _584
REMARK  237  A    between atoms: _587  and  _589
REMARK  238  A    between atoms: _589  and  _590
REMARK  239  A    between atoms: _589  and  _592
REMARK  240  A    between atoms: _592  and  _593
REMARK  241  A    between atoms: _593  and  _594
REMARK  242  A    between atoms: _594  and  _595
REMARK  243  A    between atoms: _595  and  _596
REMARK  244  A    between atoms: _600  and  _602
REMARK  245  A    between atoms: _602  and  _603
REMARK  246  A    between atoms: _602  and  _605
REMARK  247  A    between atoms: _605  and  _606
REMARK  248  A    between atoms: _611  and  _613
REMARK  249  A    between atoms: _613  and  _614
REMARK  250  A    between atoms: _613  and  _616
REMARK  251  A    between atoms: _616  and  _617
REMARK  252  A    between atoms: _617  and  _618
REMARK  253  A    between atoms: _618  and  _619
REMARK  254  A    between atoms: _619  and  _620
REMARK  255  A    between atoms: _624  and  _626
REMARK  256  A    between atoms: _626  and  _627
REMARK  257  A    between atoms: _626  and  _629
REMARK  258  A    between atoms: _629  and  _630
REMARK  259  A    between atoms: _640  and  _642
REMARK  260  A    between atoms: _642  and  _643
REMARK  261  A    between atoms: _646  and  _648
REMARK  262  A    between atoms: _648  and  _649
REMARK  263  A    between atoms: _648  and  _651
REMARK  264  A    between atoms: _651  and  _652
REMARK  265  A    between atoms: _652  and  _653
REMARK  266  A    between atoms: _656  and  _658
REMARK  267  A    between atoms: _658  and  _659
REMARK  268  A    between atoms: _658  and  _661
REMARK  269  A    between atoms: _661  and  _662
REMARK  270  A    between atoms: _662  and  _663
REMARK  271  A    between atoms: _666  and  _668
REMARK  272  A    between atoms: _668  and  _669
REMARK  273  A    between atoms: _668  and  _671
REMARK  274  A    between atoms: _671  and  _672
REMARK  275  A    between atoms: _672  and  _673
REMARK  276  A    between atoms: _673  and  _674
REMARK  277  A    between atoms: _683  and  _685
REMARK  278  A    between atoms: _685  and  _686
REMARK  279  A    between atoms: _685  and  _688
REMARK  280  A    between atoms: _688  and  _689
REMARK  281  A    between atoms: _692  and  _694
REMARK  282  A    between atoms: _694  and  _695
REMARK  283  A    between atoms: _694  and  _697
REMARK  284  A    between atoms: _697  and  _698
REMARK  285  A    between atoms: _698  and  _699
REMARK  286  A    between atoms: _699  and  _700
REMARK  287  A    between atoms: _709  and  _711
REMARK  288  A    between atoms: _711  and  _712
REMARK  289  A    between atoms: _715  and  _717
REMARK  290  A    between atoms: _717  and  _718
REMARK  291  A    between atoms: _717  and  _720
REMARK  292  A    between atoms: _720  and  _721
REMARK  293  A    between atoms: _726  and  _727
REMARK  294  A    between atoms: _729  and  _731
REMARK  295  A    between atoms: _731  and  _732
REMARK  296  A    between atoms: _731  and  _734
REMARK  297  A    between atoms: _734  and  _735
REMARK  298  A    between atoms: _738  and  _740
REMARK  299  A    between atoms: _740  and  _741
REMARK  300  A    between atoms: _740  and  _743
REMARK  301  A    between atoms: _743  and  _744
REMARK  302  A    between atoms: _747  and  _749
REMARK  303  A    between atoms: _749  and  _750
REMARK  304  A    between atoms: _749  and  _752
REMARK  305  A    between atoms: _752  and  _753
REMARK  306  A    between atoms: _754  and  _756
REMARK  307  A    between atoms: _756  and  _757
REMARK  308  A    between atoms: _756  and  _759
REMARK  309  A    between atoms: _762  and  _764
REMARK  310  A    between atoms: _764  and  _765
REMARK  311  A    between atoms: _764  and  _767
REMARK  312  A    between atoms: _767  and  _768
REMARK  313  A    between atoms: _768  and  _769
REMARK  314  A    between atoms: _772  and  _774
REMARK  315  A    between atoms: _774  and  _775
REMARK  316  A    between atoms: _774  and  _777
REMARK  317  A    between atoms: _777  and  _778
REMARK  318  A    between atoms: _788  and  _790
REMARK  319  A    between atoms: _790  and  _791
REMARK  320  A    between atoms: _790  and  _793
REMARK  321  A    between atoms: _793  and  _794
REMARK  322  A    between atoms: _797  and  _799
REMARK  323  A    between atoms: _799  and  _800
REMARK  324  A    between atoms: _799  and  _802
REMARK  325  A    between atoms: _802  and  _803
REMARK  326  A    between atoms: _808  and  _809
REMARK                            x       y       z     vdW  Elec       q    Type
REMARK                         _______ _______ _______ _____ _____    ______ ____
ROOT
ATOM      1  O   HOH     1      -3.500  -9.833  -3.124  0.00  0.00    +0.000 OA
ENDROOT
TORSDOF 0
REMARK  Name = ../refined-set-2016/3p9m/3p9m_pocket.pdb
REMARK  326 active torsions:
REMARK  status: ('A' for Active; 'I' for Inactive)
REMARK    1  A    between atoms: _1  and  _3
REMARK    2  A    between atoms: _3  and  _4
REMARK    3  A    between atoms: _3  and  _6
REMARK    4  A    between atoms: _6  and  _7
REMARK    5  A    between atoms: _10  and  _12
REMARK    6  A    between atoms: _12  and  _13
REMARK    7  A    between atoms: _12  and  _15
REMARK    8  A    between atoms: _15  and  _16
REMARK    9  A    between atoms: _16  and  _17
REMARK   10  A    between atoms: _17  and  _18
REMARK   11  A    between atoms: _27  and  _29
REMARK   12  A    between atoms: _29  and  _30
REMARK   13  A    between atoms: _29  and  _32
REMARK   14  A    between atoms: _32  and  _33
REMARK   15  A    between atoms: _38  and  _39
REMARK   16  A    between atoms: _41  and  _43
REMARK   17  A    between atoms: _43  and  _44
REMARK   18  A    between atoms: _43  and  _46
REMARK   19  A    between atoms: _46  and  _47
REMARK   20  A    between atoms: _53  and  _55
REMARK   21  A    between atoms: _55  and  _56
REMARK   22  A    between atoms: _55  and  _58
REMARK   23  A    between atoms: _61  and  _63
REMARK   24  A    between atoms: _63  and  _64
REMARK   25  A    between atoms: _63  and  _66
REMARK   26  A    between atoms: _66  and  _67
REMARK   27  A    between atoms: _70  and  _72
REMARK   28  A    between atoms: _72  and  _73
REMARK   29  A    between atoms: _72  and  _75
REMARK   30  A    between atoms: _75  and  _76
REMARK   31  A    between atoms: _81  and  _82
REMARK   32  A    between atoms: _84  and  _86
REMARK   33  A    between atoms: _86  and  _87
REMARK   34  A    between atoms: _86  and  _89
REMARK   35  A    between atoms: _89  and  _90
REMARK   36  A    between atoms: _90  and  _91
REMARK   37  A    between atoms: _93  and  _95
REMARK   38  A    between atoms: _95  and  _96
REMARK   39  A    between atoms: _95  and  _98
REMARK   40  A    between atoms: _98  and  _99
REMARK   41  A    between atoms: _99  and  _100
REMARK   42  A    between atoms: _103  and  _105
REMARK   43  A    between atoms: _105  and  _106
REMARK   44  A    between atoms: _105  and  _108
REMARK   45  A    between atoms: _111  and  _113
REMARK   46  A    between atoms: _113  and  _114
REMARK   47  A    between atoms: _116  and  _118
REMARK   48  A    between atoms: _118  and  _119
REMARK   49  A    between atoms: _118  and  _121
REMARK   50  A    between atoms: _121  and  _122
REMARK   51  A    between atoms: _128  and  _130
REMARK   52  A    between atoms: _130  and  _131
REMARK   53  A    between atoms: _130  and  _133
REMARK   54  A    between atoms: _136  and  _138
REMARK   55  A    between atoms: _138  and  _139
REMARK   56  A    between atoms: _138  and  _141
REMARK   57  A    between atoms: _141  and  _142
REMARK   58  A    between atoms: _148  and  _150
REMARK   59  A    between atoms: _150  and  _151
REMARK   60  A    between atoms: _150  and  _153
REMARK   61  A    between atoms: _153  and  _154
REMARK   62  A    between atoms: _159  and  _160
REMARK   63  A    between atoms: _162  and  _164
REMARK   64  A    between atoms: _164  and  _165
REMARK   65  A    between atoms: _164  and  _167
REMARK   66  A    between atoms: _167  and  _168
REMARK   67  A    between atoms: _168  and  _169
REMARK   68  A    between atoms: _171  and  _173
REMARK   69  A    between atoms: _173  and  _174
REMARK   70  A    between atoms: _173  and  _176
REMARK   71  A    between atoms: _176  and  _177
REMARK   72  A    between atoms: _182  and  _183
REMARK   73  A    between atoms: _185  and  _187
REMARK   74  A    between atoms: _187  and  _188
REMARK   75  A    between atoms: _187  and  _190
REMARK   76  A    between atoms: _190  and  _191
REMARK   77  A    between atoms: _191  and  _192
REMARK   78  A    between atoms: _192  and  _193
REMARK   79  A    between atoms: _202  and  _204
REMARK   80  A    between atoms: _204  and  _205
REMARK   81  A    between atoms: _204  and  _207
REMARK   82  A    between atoms: _207  and  _208
REMARK   83  A    between atoms: _208  and  _209
REMARK   84  A    between atoms: _212  and  _214
REMARK   85  A    between atoms: _214  and  _215
REMARK   86  A    between atoms: _214  and  _217
REMARK   87  A    between atoms: _217  and  _218
REMARK   88  A    between atoms: _218  and  _219
REMARK   89  A    between atoms: _219  and  _220
REMARK   90  A    between atoms: _220  and  _221
REMARK   91  A    between atoms: _225  and  _227
REMARK   92  A    between atoms: _227  and  _228
REMARK   93  A    between atoms: _231  and  _233
REMARK   94  A    between atoms: _233  and  _234
REMARK   95  A    between atoms: _236  and  _238
REMARK   96  A    between atoms: _238  and  _239
REMARK   97  A    between atoms: _238  and  _241
REMARK   98  A    between atoms: _241  and  _242
REMARK   99  A    between atoms: _247  and  _249
REMARK  100  A    between atoms: _249  and  _250
REMARK  101  A    between atoms: _249  and  _252
REMARK  102  A    between atoms: _252  and  _253
REMARK  103  A    between atoms: _253  and  _254
REMARK  104  A    between atoms: _257  and  _259
REMARK  105  A    between atoms: _259  and  _260
REMARK  106  A    between atoms: _259  and  _262
REMARK  107  A    between atoms: _262  and  _263
REMARK  108  A    between atoms: _263  and  _264
REMARK  109  A    between atoms: _269  and  _271
REMARK  110  A    between atoms: _271  and  _272
REMARK  111  A    between atoms: _271  and  _274
REMARK  112  A    between atoms: _274  and  _275
REMARK  113  A    between atoms: _277  and  _279
REMARK  114  A    between atoms: _279  and  _280
REMARK  115  A    between atoms: _279  and  _282
REMARK  116  A    between atoms: _282  and  _283
REMARK  117  A    between atoms: _289  and  _291
REMARK  118  A    between atoms: _291  and  _292
REMARK  119  A    between atoms: _291  and  _294
REMARK  120  A    between atoms: _294  and  _295
REMARK  121  A    between atoms: _295  and  _296
REMARK  122  A    between atoms: _296  and  _297
REMARK  123  A    between atoms: _306  and  _308
REMARK  124  A    between atoms: _308  and  _309
REMARK  125  A    between atoms: _308  and  _311
REMARK  126  A    between atoms: _314  and  _316
REMARK  127  A    between atoms: _316  and  _317
REMARK  128  A    between atoms: _316  and  _319
REMARK  129  A    between atoms: _319  and  _320
REMARK  130  A    between atoms: _323  and  _325
REMARK  131  A    between atoms: _325  and  _326
REMARK  132  A    between atoms: _325  and  _328
REMARK  133  A    between atoms: _328  and  _329
REMARK  134  A    between atoms: _332  and  _334
REMARK  135  A    between atoms: _334  and  _335
REMARK  136  A    between atoms: _334  and  _337
REMARK  137  A    between atoms: _337  and  _338
REMARK  138  A    between atoms: _338  and  _339
REMARK  139  A    between atoms: _339  and  _340
REMARK  140  A    between atoms: _349  and  _351
REMARK  141  A    between atoms: _351  and  _352
REMARK  142  A    between atoms: _351  and  _354
REMARK  143  A    between atoms: _354  and  _355
REMARK  144  A    between atoms: _358  and  _360
REMARK  145  A    between atoms: _360  and  _361
REMARK  146  A    between atoms: _360  and  _363
REMARK  147  A    between atoms: _363  and  _364
REMARK  148  A    between atoms: _367  and  _369
REMARK  149  A    between atoms: _369  and  _370
REMARK  150  A    between atoms: _369  and  _372
REMARK  151  A    between atoms: _372  and  _373
REMARK  152  A    between atoms: _378  and  _379
REMARK  153  A    between atoms: _381  and  _383
REMARK  154  A    between atoms: _383  and  _384
REMARK  155  A    between atoms: _383  and  _386
REMARK  156  A    between atoms: _386  and  _387
REMARK  157  A    between atoms: _392  and  _393
REMARK  158  A    between atoms: _395  and  _397
REMARK  159  A    between atoms: _397  and  _398
REMARK  160  A    between atoms: _397  and  _400
REMARK  161  A    between atoms: _400  and  _401
REMARK  162  A    between atoms: _404  and  _406
REMARK  163  A    between atoms: _406  and  _407
REMARK  164  A    between atoms: _406  and  _409
REMARK  165  A    between atoms: _409  and  _410
REMARK  166  A    between atoms: _410  and  _411
REMARK  167  A    between atoms: _416  and  _418
REMARK  168  A    between atoms: _418  and  _419
REMARK  169  A    between atoms: _418  and  _421
REMARK  170  A    between atoms: _424  and  _426
REMARK  171  A    between atoms: _426  and  _427
REMARK  172  A    between atoms: _426  and  _429
REMARK  173  A    between atoms: _429  and  _430
REMARK  174  A    between atoms: _433  and  _435
REMARK  175  A    between atoms: _435  and  _436
REMARK  176  A    between atoms: _435  and  _438
REMARK  177  A    between atoms: _438  and  _439
REMARK  178  A    between atoms: _441  and  _443
REMARK  179  A    between atoms: _443  and  _444
REMARK  180  A    between atoms: _446  and  _448
REMARK  181  A    between atoms: _448  and  _449
REMARK  182  A    between atoms: _448  and  _451
REMARK  183  A    between atoms: _451  and  _452
REMARK  184  A    between atoms: _452  and  _753
REMARK  185  A    between atoms: _453  and  _455
REMARK  186  A    between atoms: _455  and  _456
REMARK  187  A    between atoms: _455  and  _458
REMARK  188  A    between atoms: _458  and  _459
REMARK  189  A    between atoms: _464  and  _465
REMARK  190  A    between atoms: _467  and  _469
REMARK  191  A    between atoms: _469  and  _470
REMARK  192  A    between atoms: _469  and  _472
REMARK  193  A    between atoms: _472  and  _473
REMARK  194  A    between atoms: _473  and  _474
REMARK  195  A    between atoms: _479  and  _481
REMARK  196  A    between atoms: _481  and  _482
REMARK  197  A    between atoms: _481  and  _484
REMARK  198  A    between atoms: _484  and  _485
REMARK  199  A    between atoms: _485  and  _486
REMARK  200  A    between atoms: _491  and  _493
REMARK  201  A    between atoms: _493  and  _494
REMARK  202  A    between atoms: _493  and  _496
REMARK  203  A    between atoms: _496  and  _497
REMARK  204  A    between atoms: _502  and  _503
REMARK  205  A    between atoms: _505  and  _507
REMARK  206  A    between atoms: _507  and  _508
REMARK  207  A    between atoms: _511  and  _513
REMARK  208  A    between atoms: _513  and  _514
REMARK  209  A    between atoms: _513  and  _516
REMARK  210  A    between atoms: _516  and  _517
REMARK  211  A    between atoms: _522  and  _523
REMARK  212  A    between atoms: _525  and  _527
REMARK  213  A    between atoms: _527  and  _528
REMARK  214  A    between atoms: _527  and  _530
REMARK  215  A    between atoms: _530  and  _531
REMARK  216  A    between atoms: _536  and  _537
REMARK  217  A    between atoms: _539  and  _541
REMARK  218  A    between atoms: _541  and  _542
REMARK  219  A    between atoms: _541  and  _544
REMARK  220  A    between atoms: _544  and  _545
REMARK  221  A    between atoms: _548  and  _550
REMARK  222  A    between atoms: _550  and  _551
REMARK  223  A    between atoms: _554  and  _556
REMARK  224  A    between atoms: _556  and  _557
REMARK  225  A    between atoms: _560  and  _562
REMARK  226  A    between atoms: _562  and  _563
REMARK  227  A    between atoms: _562  and  _565
REMARK  228  A    between atoms: _565  and  _566
REMARK  229  A    between atoms: _569  and  _571
REMARK  230  A    between atoms: _571  and  _572
REMARK  231  A    between atoms: _571  and  _574
REMARK  232  A    between atoms: _574  and  _575
REMARK  233  A    between atoms: _578  and  _580
REMARK  234  A    between atoms: _580  and  _581
REMARK  235  A    between atoms: _580  and  _583
REMARK  236  A    between atoms: _583  and  _584
REMARK  237  A    between atoms: _587  and  _589
REMARK  238  A    between atoms: _589  and  _590
REMARK  239  A    between atoms: _589  and  _592
REMARK  240  A    between atoms: _592  and  _593
REMARK  241  A    between atoms: _593  and  _594
REMARK  242  A    between atoms: _594  and  _595
REMARK  243  A    between atoms: _595  and  _596
REMARK  244  A    between atoms: _600  and  _602
REMARK  245  A    between atoms: _602  and  _603
REMARK  246  A    between atoms: _602  and  _605
REMARK  247  A    between atoms: _605  and  _606
REMARK  248  A    between atoms: _611  and  _613
REMARK  249  A    between atoms: _613  and  _614
REMARK  250  A    between atoms: _613  and  _616
REMARK  251  A    between atoms: _616  and  _617
REMARK  252  A    between atoms: _617  and  _618
REMARK  253  A    between atoms: _618  and  _619
REMARK  254  A    between atoms: _619  and  _620
REMARK  255  A    between atoms: _624  and  _626
REMARK  256  A    between atoms: _626  and  _627
REMARK  257  A    between atoms: _626  and  _629
REMARK  258  A    between atoms: _629  and  _630
REMARK  259  A    between atoms: _640  and  _642
REMARK  260  A    between atoms: _642  and  _643
REMARK  261  A    between atoms: _646  and  _648
REMARK  262  A    between atoms: _648  and  _649
REMARK  263  A    between atoms: _648  and  _651
REMARK  264  A    between atoms: _651  and  _652
REMARK  265  A    between atoms: _652  and  _653
REMARK  266  A    between atoms: _656  and  _658
REMARK  267  A    between atoms: _658  and  _659
REMARK  268  A    between atoms: _658  and  _661
REMARK  269  A    between atoms: _661  and  _662
REMARK  270  A    between atoms: _662  and  _663
REMARK  271  A    between atoms: _666  and  _668
REMARK  272  A    between atoms: _668  and  _669
REMARK  273  A    between atoms: _668  and  _671
REMARK  274  A    between atoms: _671  and  _672
REMARK  275  A    between atoms: _672  and  _673
REMARK  276  A    between atoms: _673  and  _674
REMARK  277  A    between atoms: _683  and  _685
REMARK  278  A    between atoms: _685  and  _686
REMARK  279  A    between atoms: _685  and  _688
REMARK  280  A    between atoms: _688  and  _689
REMARK  281  A    between atoms: _692  and  _694
REMARK  282  A    between atoms: _694  and  _695
REMARK  283  A    between atoms: _694  and  _697
REMARK  284  A    between atoms: _697  and  _698
REMARK  285  A    between atoms: _698  and  _699
REMARK  286  A    between atoms: _699  and  _700
REMARK  287  A    between atoms: _709  and  _711
REMARK  288  A    between atoms: _711  and  _712
REMARK  289  A    between atoms: _715  and  _717
REMARK  290  A    between atoms: _717  and  _718
REMARK  291  A    between atoms: _717  and  _720
REMARK  292  A    between atoms: _720  and  _721
REMARK  293  A    between atoms: _726  and  _727
REMARK  294  A    between atoms: _729  and  _731
REMARK  295  A    between atoms: _731  and  _732
REMARK  296  A    between atoms: _731  and  _734
REMARK  297  A    between atoms: _734  and  _735
REMARK  298  A    between atoms: _738  and  _740
REMARK  299  A    between atoms: _740  and  _741
REMARK  300  A    between atoms: _740  and  _743
REMARK  301  A    between atoms: _743  and  _744
REMARK  302  A    between atoms: _747  and  _749
REMARK  303  A    between atoms: _749  and  _750
REMARK  304  A    between atoms: _749  and  _752
REMARK  305  A    between atoms: _752  and  _753
REMARK  306  A    between atoms: _754  and  _756
REMARK  307  A    between atoms: _756  and  _757
REMARK  308  A    between atoms: _756  and  _759
REMARK  309  A    between atoms: _762  and  _764
REMARK  310  A    between atoms: _764  and  _765
REMARK  311  A    between atoms: _764  and  _767
REMARK  312  A    between atoms: _767  and  _768
REMARK  313  A    between atoms: _768  and  _769
REMARK  314  A    between atoms: _772  and  _774
REMARK  315  A    between atoms: _774  and  _775
REMARK  316  A    between atoms: _774  and  _777
REMARK  317  A    between atoms: _777  and  _778
REMARK  318  A    between atoms: _788  and  _790
REMARK  319  A    between atoms: _790  and  _791
REMARK  320  A    between atoms: _790  and  _793
REMARK  321  A    between atoms: _793  and  _794
REMARK  322  A    between atoms: _797  and  _799
REMARK  323  A    between atoms: _799  and  _800
REMARK  324  A    between atoms: _799  and  _802
REMARK  325  A    between atoms: _802  and  _803
REMARK  326  A    between atoms: _808  and  _809
REMARK                            x       y       z     vdW  Elec       q    Type
REMARK                         _______ _______ _______ _____ _____    ______ ____
ROOT
ATOM      1  O   HOH     1       3.207   3.610  -5.218  0.00  0.00    +0.000 OA
ENDROOT
TORSDOF 0
REMARK  Name = ../refined-set-2016/3p9m/3p9m_pocket.pdb
REMARK  326 active torsions:
REMARK  status: ('A' for Active; 'I' for Inactive)
REMARK    1  A    between atoms: _1  and  _3
REMARK    2  A    between atoms: _3  and  _4
REMARK    3  A    between atoms: _3  and  _6
REMARK    4  A    between atoms: _6  and  _7
REMARK    5  A    between atoms: _10  and  _12
REMARK    6  A    between atoms: _12  and  _13
REMARK    7  A    between atoms: _12  and  _15
REMARK    8  A    between atoms: _15  and  _16
REMARK    9  A    between atoms: _16  and  _17
REMARK   10  A    between atoms: _17  and  _18
REMARK   11  A    between atoms: _27  and  _29
REMARK   12  A    between atoms: _29  and  _30
REMARK   13  A    between atoms: _29  and  _32
REMARK   14  A    between atoms: _32  and  _33
REMARK   15  A    between atoms: _38  and  _39
REMARK   16  A    between atoms: _41  and  _43
REMARK   17  A    between atoms: _43  and  _44
REMARK   18  A    between atoms: _43  and  _46
REMARK   19  A    between atoms: _46  and  _47
REMARK   20  A    between atoms: _53  and  _55
REMARK   21  A    between atoms: _55  and  _56
REMARK   22  A    between atoms: _55  and  _58
REMARK   23  A    between atoms: _61  and  _63
REMARK   24  A    between atoms: _63  and  _64
REMARK   25  A    between atoms: _63  and  _66
REMARK   26  A    between atoms: _66  and  _67
REMARK   27  A    between atoms: _70  and  _72
REMARK   28  A    between atoms: _72  and  _73
REMARK   29  A    between atoms: _72  and  _75
REMARK   30  A    between atoms: _75  and  _76
REMARK   31  A    between atoms: _81  and  _82
REMARK   32  A    between atoms: _84  and  _86
REMARK   33  A    between atoms: _86  and  _87
REMARK   34  A    between atoms: _86  and  _89
REMARK   35  A    between atoms: _89  and  _90
REMARK   36  A    between atoms: _90  and  _91
REMARK   37  A    between atoms: _93  and  _95
REMARK   38  A    between atoms: _95  and  _96
REMARK   39  A    between atoms: _95  and  _98
REMARK   40  A    between atoms: _98  and  _99
REMARK   41  A    between atoms: _99  and  _100
REMARK   42  A    between atoms: _103  and  _105
REMARK   43  A    between atoms: _105  and  _106
REMARK   44  A    between atoms: _105  and  _108
REMARK   45  A    between atoms: _111  and  _113
REMARK   46  A    between atoms: _113  and  _114
REMARK   47  A    between atoms: _116  and  _118
REMARK   48  A    between atoms: _118  and  _119
REMARK   49  A    between atoms: _118  and  _121
REMARK   50  A    between atoms: _121  and  _122
REMARK   51  A    between atoms: _128  and  _130
REMARK   52  A    between atoms: _130  and  _131
REMARK   53  A    between atoms: _130  and  _133
REMARK   54  A    between atoms: _136  and  _138
REMARK   55  A    between atoms: _138  and  _139
REMARK   56  A    between atoms: _138  and  _141
REMARK   57  A    between atoms: _141  and  _142
REMARK   58  A    between atoms: _148  and  _150
REMARK   59  A    between atoms: _150  and  _151
REMARK   60  A    between atoms: _150  and  _153
REMARK   61  A    between atoms: _153  and  _154
REMARK   62  A    between atoms: _159  and  _160
REMARK   63  A    between atoms: _162  and  _164
REMARK   64  A    between atoms: _164  and  _165
REMARK   65  A    between atoms: _164  and  _167
REMARK   66  A    between atoms: _167  and  _168
REMARK   67  A    between atoms: _168  and  _169
REMARK   68  A    between atoms: _171  and  _173
REMARK   69  A    between atoms: _173  and  _174
REMARK   70  A    between atoms: _173  and  _176
REMARK   71  A    between atoms: _176  and  _177
REMARK   72  A    between atoms: _182  and  _183
REMARK   73  A    between atoms: _185  and  _187
REMARK   74  A    between atoms: _187  and  _188
REMARK   75  A    between atoms: _187  and  _190
REMARK   76  A    between atoms: _190  and  _191
REMARK   77  A    between atoms: _191  and  _192
REMARK   78  A    between atoms: _192  and  _193
REMARK   79  A    between atoms: _202  and  _204
REMARK   80  A    between atoms: _204  and  _205
REMARK   81  A    between atoms: _204  and  _207
REMARK   82  A    between atoms: _207  and  _208
REMARK   83  A    between atoms: _208  and  _209
REMARK   84  A    between atoms: _212  and  _214
REMARK   85  A    between atoms: _214  and  _215
REMARK   86  A    between atoms: _214  and  _217
REMARK   87  A    between atoms: _217  and  _218
REMARK   88  A    between atoms: _218  and  _219
REMARK   89  A    between atoms: _219  and  _220
REMARK   90  A    between atoms: _220  and  _221
REMARK   91  A    between atoms: _225  and  _227
REMARK   92  A    between atoms: _227  and  _228
REMARK   93  A    between atoms: _231  and  _233
REMARK   94  A    between atoms: _233  and  _234
REMARK   95  A    between atoms: _236  and  _238
REMARK   96  A    between atoms: _238  and  _239
REMARK   97  A    between atoms: _238  and  _241
REMARK   98  A    between atoms: _241  and  _242
REMARK   99  A    between atoms: _247  and  _249
REMARK  100  A    between atoms: _249  and  _250
REMARK  101  A    between atoms: _249  and  _252
REMARK  102  A    between atoms: _252  and  _253
REMARK  103  A    between atoms: _253  and  _254
REMARK  104  A    between atoms: _257  and  _259
REMARK  105  A    between atoms: _259  and  _260
REMARK  106  A    between atoms: _259  and  _262
REMARK  107  A    between atoms: _262  and  _263
REMARK  108  A    between atoms: _263  and  _264
REMARK  109  A    between atoms: _269  and  _271
REMARK  110  A    between atoms: _271  and  _272
REMARK  111  A    between atoms: _271  and  _274
REMARK  112  A    between atoms: _274  and  _275
REMARK  113  A    between atoms: _277  and  _279
REMARK  114  A    between atoms: _279  and  _280
REMARK  115  A    between atoms: _279  and  _282
REMARK  116  A    between atoms: _282  and  _283
REMARK  117  A    between atoms: _289  and  _291
REMARK  118  A    between atoms: _291  and  _292
REMARK  119  A    between atoms: _291  and  _294
REMARK  120  A    between atoms: _294  and  _295
REMARK  121  A    between atoms: _295  and  _296
REMARK  122  A    between atoms: _296  and  _297
REMARK  123  A    between atoms: _306  and  _308
REMARK  124  A    between atoms: _308  and  _309
REMARK  125  A    between atoms: _308  and  _311
REMARK  126  A    between atoms: _314  and  _316
REMARK  127  A    between atoms: _316  and  _317
REMARK  128  A    between atoms: _316  and  _319
REMARK  129  A    between atoms: _319  and  _320
REMARK  130  A    between atoms: _323  and  _325
REMARK  131  A    between atoms: _325  and  _326
REMARK  132  A    between atoms: _325  and  _328
REMARK  133  A    between atoms: _328  and  _329
REMARK  134  A    between atoms: _332  and  _334
REMARK  135  A    between atoms: _334  and  _335
REMARK  136  A    between atoms: _334  and  _337
REMARK  137  A    between atoms: _337  and  _338
REMARK  138  A    between atoms: _338  and  _339
REMARK  139  A    between atoms: _339  and  _340
REMARK  140  A    between atoms: _349  and  _351
REMARK  141  A    between atoms: _351  and  _352
REMARK  142  A    between atoms: _351  and  _354
REMARK  143  A    between atoms: _354  and  _355
REMARK  144  A    between atoms: _358  and  _360
REMARK  145  A    between atoms: _360  and  _361
REMARK  146  A    between atoms: _360  and  _363
REMARK  147  A    between atoms: _363  and  _364
REMARK  148  A    between atoms: _367  and  _369
REMARK  149  A    between atoms: _369  and  _370
REMARK  150  A    between atoms: _369  and  _372
REMARK  151  A    between atoms: _372  and  _373
REMARK  152  A    between atoms: _378  and  _379
REMARK  153  A    between atoms: _381  and  _383
REMARK  154  A    between atoms: _383  and  _384
REMARK  155  A    between atoms: _383  and  _386
REMARK  156  A    between atoms: _386  and  _387
REMARK  157  A    between atoms: _392  and  _393
REMARK  158  A    between atoms: _395  and  _397
REMARK  159  A    between atoms: _397  and  _398
REMARK  160  A    between atoms: _397  and  _400
REMARK  161  A    between atoms: _400  and  _401
REMARK  162  A    between atoms: _404  and  _406
REMARK  163  A    between atoms: _406  and  _407
REMARK  164  A    between atoms: _406  and  _409
REMARK  165  A    between atoms: _409  and  _410
REMARK  166  A    between atoms: _410  and  _411
REMARK  167  A    between atoms: _416  and  _418
REMARK  168  A    between atoms: _418  and  _419
REMARK  169  A    between atoms: _418  and  _421
REMARK  170  A    between atoms: _424  and  _426
REMARK  171  A    between atoms: _426  and  _427
REMARK  172  A    between atoms: _426  and  _429
REMARK  173  A    between atoms: _429  and  _430
REMARK  174  A    between atoms: _433  and  _435
REMARK  175  A    between atoms: _435  and  _436
REMARK  176  A    between atoms: _435  and  _438
REMARK  177  A    between atoms: _438  and  _439
REMARK  178  A    between atoms: _441  and  _443
REMARK  179  A    between atoms: _443  and  _444
REMARK  180  A    between atoms: _446  and  _448
REMARK  181  A    between atoms: _448  and  _449
REMARK  182  A    between atoms: _448  and  _451
REMARK  183  A    between atoms: _451  and  _452
REMARK  184  A    between atoms: _452  and  _753
REMARK  185  A    between atoms: _453  and  _455
REMARK  186  A    between atoms: _455  and  _456
REMARK  187  A    between atoms: _455  and  _458
REMARK  188  A    between atoms: _458  and  _459
REMARK  189  A    between atoms: _464  and  _465
REMARK  190  A    between atoms: _467  and  _469
REMARK  191  A    between atoms: _469  and  _470
REMARK  192  A    between atoms: _469  and  _472
REMARK  193  A    between atoms: _472  and  _473
REMARK  194  A    between atoms: _473  and  _474
REMARK  195  A    between atoms: _479  and  _481
REMARK  196  A    between atoms: _481  and  _482
REMARK  197  A    between atoms: _481  and  _484
REMARK  198  A    between atoms: _484  and  _485
REMARK  199  A    between atoms: _485  and  _486
REMARK  200  A    between atoms: _491  and  _493
REMARK  201  A    between atoms: _493  and  _494
REMARK  202  A    between atoms: _493  and  _496
REMARK  203  A    between atoms: _496  and  _497
REMARK  204  A    between atoms: _502  and  _503
REMARK  205  A    between atoms: _505  and  _507
REMARK  206  A    between atoms: _507  and  _508
REMARK  207  A    between atoms: _511  and  _513
REMARK  208  A    between atoms: _513  and  _514
REMARK  209  A    between atoms: _513  and  _516
REMARK  210  A    between atoms: _516  and  _517
REMARK  211  A    between atoms: _522  and  _523
REMARK  212  A    between atoms: _525  and  _527
REMARK  213  A    between atoms: _527  and  _528
REMARK  214  A    between atoms: _527  and  _530
REMARK  215  A    between atoms: _530  and  _531
REMARK  216  A    between atoms: _536  and  _537
REMARK  217  A    between atoms: _539  and  _541
REMARK  218  A    between atoms: _541  and  _542
REMARK  219  A    between atoms: _541  and  _544
REMARK  220  A    between atoms: _544  and  _545
REMARK  221  A    between atoms: _548  and  _550
REMARK  222  A    between atoms: _550  and  _551
REMARK  223  A    between atoms: _554  and  _556
REMARK  224  A    between atoms: _556  and  _557
REMARK  225  A    between atoms: _560  and  _562
REMARK  226  A    between atoms: _562  and  _563
REMARK  227  A    between atoms: _562  and  _565
REMARK  228  A    between atoms: _565  and  _566
REMARK  229  A    between atoms: _569  and  _571
REMARK  230  A    between atoms: _571  and  _572
REMARK  231  A    between atoms: _571  and  _574
REMARK  232  A    between atoms: _574  and  _575
REMARK  233  A    between atoms: _578  and  _580
REMARK  234  A    between atoms: _580  and  _581
REMARK  235  A    between atoms: _580  and  _583
REMARK  236  A    between atoms: _583  and  _584
REMARK  237  A    between atoms: _587  and  _589
REMARK  238  A    between atoms: _589  and  _590
REMARK  239  A    between atoms: _589  and  _592
REMARK  240  A    between atoms: _592  and  _593
REMARK  241  A    between atoms: _593  and  _594
REMARK  242  A    between atoms: _594  and  _595
REMARK  243  A    between atoms: _595  and  _596
REMARK  244  A    between atoms: _600  and  _602
REMARK  245  A    between atoms: _602  and  _603
REMARK  246  A    between atoms: _602  and  _605
REMARK  247  A    between atoms: _605  and  _606
REMARK  248  A    between atoms: _611  and  _613
REMARK  249  A    between atoms: _613  and  _614
REMARK  250  A    between atoms: _613  and  _616
REMARK  251  A    between atoms: _616  and  _617
REMARK  252  A    between atoms: _617  and  _618
REMARK  253  A    between atoms: _618  and  _619
REMARK  254  A    between atoms: _619  and  _620
REMARK  255  A    between atoms: _624  and  _626
REMARK  256  A    between atoms: _626  and  _627
REMARK  257  A    between atoms: _626  and  _629
REMARK  258  A    between atoms: _629  and  _630
REMARK  259  A    between atoms: _640  and  _642
REMARK  260  A    between atoms: _642  and  _643
REMARK  261  A    between atoms: _646  and  _648
REMARK  262  A    between atoms: _648  and  _649
REMARK  263  A    between atoms: _648  and  _651
REMARK  264  A    between atoms: _651  and  _652
REMARK  265  A    between atoms: _652  and  _653
REMARK  266  A    between atoms: _656  and  _658
REMARK  267  A    between atoms: _658  and  _659
REMARK  268  A    between atoms: _658  and  _661
REMARK  269  A    between atoms: _661  and  _662
REMARK  270  A    between atoms: _662  and  _663
REMARK  271  A    between atoms: _666  and  _668
REMARK  272  A    between atoms: _668  and  _669
REMARK  273  A    between atoms: _668  and  _671
REMARK  274  A    between atoms: _671  and  _672
REMARK  275  A    between atoms: _672  and  _673
REMARK  276  A    between atoms: _673  and  _674
REMARK  277  A    between atoms: _683  and  _685
REMARK  278  A    between atoms: _685  and  _686
REMARK  279  A    between atoms: _685  and  _688
REMARK  280  A    between atoms: _688  and  _689
REMARK  281  A    between atoms: _692  and  _694
REMARK  282  A    between atoms: _694  and  _695
REMARK  283  A    between atoms: _694  and  _697
REMARK  284  A    between atoms: _697  and  _698
REMARK  285  A    between atoms: _698  and  _699
REMARK  286  A    between atoms: _699  and  _700
REMARK  287  A    between atoms: _709  and  _711
REMARK  288  A    between atoms: _711  and  _712
REMARK  289  A    between atoms: _715  and  _717
REMARK  290  A    between atoms: _717  and  _718
REMARK  291  A    between atoms: _717  and  _720
REMARK  292  A    between atoms: _720  and  _721
REMARK  293  A    between atoms: _726  and  _727
REMARK  294  A    between atoms: _729  and  _731
REMARK  295  A    between atoms: _731  and  _732
REMARK  296  A    between atoms: _731  and  _734
REMARK  297  A    between atoms: _734  and  _735
REMARK  298  A    between atoms: _738  and  _740
REMARK  299  A    between atoms: _740  and  _741
REMARK  300  A    between atoms: _740  and  _743
REMARK  301  A    between atoms: _743  and  _744
REMARK  302  A    between atoms: _747  and  _749
REMARK  303  A    between atoms: _749  and  _750
REMARK  304  A    between atoms: _749  and  _752
REMARK  305  A    between atoms: _752  and  _753
REMARK  306  A    between atoms: _754  and  _756
REMARK  307  A    between atoms: _756  and  _757
REMARK  308  A    between atoms: _756  and  _759
REMARK  309  A    between atoms: _762  and  _764
REMARK  310  A    between atoms: _764  and  _765
REMARK  311  A    between atoms: _764  and  _767
REMARK  312  A    between atoms: _767  and  _768
REMARK  313  A    between atoms: _768  and  _769
REMARK  314  A    between atoms: _772  and  _774
REMARK  315  A    between atoms: _774  and  _775
REMARK  316  A    between atoms: _774  and  _777
REMARK  317  A    between atoms: _777  and  _778
REMARK  318  A    between atoms: _788  and  _790
REMARK  319  A    between atoms: _790  and  _791
REMARK  320  A    between atoms: _790  and  _793
REMARK  321  A    between atoms: _793  and  _794
REMARK  322  A    between atoms: _797  and  _799
REMARK  323  A    between atoms: _799  and  _800
REMARK  324  A    between atoms: _799  and  _802
REMARK  325  A    between atoms: _802  and  _803
REMARK  326  A    between atoms: _808  and  _809
REMARK                            x       y       z     vdW  Elec       q    Type
REMARK                         _______ _______ _______ _____ _____    ______ ____
ROOT
ATOM      1  O   HOH     1      -4.305   5.818   0.052  0.00  0.00    +0.000 OA
ENDROOT
TORSDOF 0
REMARK  Name = ../refined-set-2016/3p9m/3p9m_pocket.pdb
REMARK  326 active torsions:
REMARK  status: ('A' for Active; 'I' for Inactive)
REMARK    1  A    between atoms: _1  and  _3
REMARK    2  A    between atoms: _3  and  _4
REMARK    3  A    between atoms: _3  and  _6
REMARK    4  A    between atoms: _6  and  _7
REMARK    5  A    between atoms: _10  and  _12
REMARK    6  A    between atoms: _12  and  _13
REMARK    7  A    between atoms: _12  and  _15
REMARK    8  A    between atoms: _15  and  _16
REMARK    9  A    between atoms: _16  and  _17
REMARK   10  A    between atoms: _17  and  _18
REMARK   11  A    between atoms: _27  and  _29
REMARK   12  A    between atoms: _29  and  _30
REMARK   13  A    between atoms: _29  and  _32
REMARK   14  A    between atoms: _32  and  _33
REMARK   15  A    between atoms: _38  and  _39
REMARK   16  A    between atoms: _41  and  _43
REMARK   17  A    between atoms: _43  and  _44
REMARK   18  A    between atoms: _43  and  _46
REMARK   19  A    between atoms: _46  and  _47
REMARK   20  A    between atoms: _53  and  _55
REMARK   21  A    between atoms: _55  and  _56
REMARK   22  A    between atoms: _55  and  _58
REMARK   23  A    between atoms: _61  and  _63
REMARK   24  A    between atoms: _63  and  _64
REMARK   25  A    between atoms: _63  and  _66
REMARK   26  A    between atoms: _66  and  _67
REMARK   27  A    between atoms: _70  and  _72
REMARK   28  A    between atoms: _72  and  _73
REMARK   29  A    between atoms: _72  and  _75
REMARK   30  A    between atoms: _75  and  _76
REMARK   31  A    between atoms: _81  and  _82
REMARK   32  A    between atoms: _84  and  _86
REMARK   33  A    between atoms: _86  and  _87
REMARK   34  A    between atoms: _86  and  _89
REMARK   35  A    between atoms: _89  and  _90
REMARK   36  A    between atoms: _90  and  _91
REMARK   37  A    between atoms: _93  and  _95
REMARK   38  A    between atoms: _95  and  _96
REMARK   39  A    between atoms: _95  and  _98
REMARK   40  A    between atoms: _98  and  _99
REMARK   41  A    between atoms: _99  and  _100
REMARK   42  A    between atoms: _103  and  _105
REMARK   43  A    between atoms: _105  and  _106
REMARK   44  A    between atoms: _105  and  _108
REMARK   45  A    between atoms: _111  and  _113
REMARK   46  A    between atoms: _113  and  _114
REMARK   47  A    between atoms: _116  and  _118
REMARK   48  A    between atoms: _118  and  _119
REMARK   49  A    between atoms: _118  and  _121
REMARK   50  A    between atoms: _121  and  _122
REMARK   51  A    between atoms: _128  and  _130
REMARK   52  A    between atoms: _130  and  _131
REMARK   53  A    between atoms: _130  and  _133
REMARK   54  A    between atoms: _136  and  _138
REMARK   55  A    between atoms: _138  and  _139
REMARK   56  A    between atoms: _138  and  _141
REMARK   57  A    between atoms: _141  and  _142
REMARK   58  A    between atoms: _148  and  _150
REMARK   59  A    between atoms: _150  and  _151
REMARK   60  A    between atoms: _150  and  _153
REMARK   61  A    between atoms: _153  and  _154
REMARK   62  A    between atoms: _159  and  _160
REMARK   63  A    between atoms: _162  and  _164
REMARK   64  A    between atoms: _164  and  _165
REMARK   65  A    between atoms: _164  and  _167
REMARK   66  A    between atoms: _167  and  _168
REMARK   67  A    between atoms: _168  and  _169
REMARK   68  A    between atoms: _171  and  _173
REMARK   69  A    between atoms: _173  and  _174
REMARK   70  A    between atoms: _173  and  _176
REMARK   71  A    between atoms: _176  and  _177
REMARK   72  A    between atoms: _182  and  _183
REMARK   73  A    between atoms: _185  and  _187
REMARK   74  A    between atoms: _187  and  _188
REMARK   75  A    between atoms: _187  and  _190
REMARK   76  A    between atoms: _190  and  _191
REMARK   77  A    between atoms: _191  and  _192
REMARK   78  A    between atoms: _192  and  _193
REMARK   79  A    between atoms: _202  and  _204
REMARK   80  A    between atoms: _204  and  _205
REMARK   81  A    between atoms: _204  and  _207
REMARK   82  A    between atoms: _207  and  _208
REMARK   83  A    between atoms: _208  and  _209
REMARK   84  A    between atoms: _212  and  _214
REMARK   85  A    between atoms: _214  and  _215
REMARK   86  A    between atoms: _214  and  _217
REMARK   87  A    between atoms: _217  and  _218
REMARK   88  A    between atoms: _218  and  _219
REMARK   89  A    between atoms: _219  and  _220
REMARK   90  A    between atoms: _220  and  _221
REMARK   91  A    between atoms: _225  and  _227
REMARK   92  A    between atoms: _227  and  _228
REMARK   93  A    between atoms: _231  and  _233
REMARK   94  A    between atoms: _233  and  _234
REMARK   95  A    between atoms: _236  and  _238
REMARK   96  A    between atoms: _238  and  _239
REMARK   97  A    between atoms: _238  and  _241
REMARK   98  A    between atoms: _241  and  _242
REMARK   99  A    between atoms: _247  and  _249
REMARK  100  A    between atoms: _249  and  _250
REMARK  101  A    between atoms: _249  and  _252
REMARK  102  A    between atoms: _252  and  _253
REMARK  103  A    between atoms: _253  and  _254
REMARK  104  A    between atoms: _257  and  _259
REMARK  105  A    between atoms: _259  and  _260
REMARK  106  A    between atoms: _259  and  _262
REMARK  107  A    between atoms: _262  and  _263
REMARK  108  A    between atoms: _263  and  _264
REMARK  109  A    between atoms: _269  and  _271
REMARK  110  A    between atoms: _271  and  _272
REMARK  111  A    between atoms: _271  and  _274
REMARK  112  A    between atoms: _274  and  _275
REMARK  113  A    between atoms: _277  and  _279
REMARK  114  A    between atoms: _279  and  _280
REMARK  115  A    between atoms: _279  and  _282
REMARK  116  A    between atoms: _282  and  _283
REMARK  117  A    between atoms: _289  and  _291
REMARK  118  A    between atoms: _291  and  _292
REMARK  119  A    between atoms: _291  and  _294
REMARK  120  A    between atoms: _294  and  _295
REMARK  121  A    between atoms: _295  and  _296
REMARK  122  A    between atoms: _296  and  _297
REMARK  123  A    between atoms: _306  and  _308
REMARK  124  A    between atoms: _308  and  _309
REMARK  125  A    between atoms: _308  and  _311
REMARK  126  A    between atoms: _314  and  _316
REMARK  127  A    between atoms: _316  and  _317
REMARK  128  A    between atoms: _316  and  _319
REMARK  129  A    between atoms: _319  and  _320
REMARK  130  A    between atoms: _323  and  _325
REMARK  131  A    between atoms: _325  and  _326
REMARK  132  A    between atoms: _325  and  _328
REMARK  133  A    between atoms: _328  and  _329
REMARK  134  A    between atoms: _332  and  _334
REMARK  135  A    between atoms: _334  and  _335
REMARK  136  A    between atoms: _334  and  _337
REMARK  137  A    between atoms: _337  and  _338
REMARK  138  A    between atoms: _338  and  _339
REMARK  139  A    between atoms: _339  and  _340
REMARK  140  A    between atoms: _349  and  _351
REMARK  141  A    between atoms: _351  and  _352
REMARK  142  A    between atoms: _351  and  _354
REMARK  143  A    between atoms: _354  and  _355
REMARK  144  A    between atoms: _358  and  _360
REMARK  145  A    between atoms: _360  and  _361
REMARK  146  A    between atoms: _360  and  _363
REMARK  147  A    between atoms: _363  and  _364
REMARK  148  A    between atoms: _367  and  _369
REMARK  149  A    between atoms: _369  and  _370
REMARK  150  A    between atoms: _369  and  _372
REMARK  151  A    between atoms: _372  and  _373
REMARK  152  A    between atoms: _378  and  _379
REMARK  153  A    between atoms: _381  and  _383
REMARK  154  A    between atoms: _383  and  _384
REMARK  155  A    between atoms: _383  and  _386
REMARK  156  A    between atoms: _386  and  _387
REMARK  157  A    between atoms: _392  and  _393
REMARK  158  A    between atoms: _395  and  _397
REMARK  159  A    between atoms: _397  and  _398
REMARK  160  A    between atoms: _397  and  _400
REMARK  161  A    between atoms: _400  and  _401
REMARK  162  A    between atoms: _404  and  _406
REMARK  163  A    between atoms: _406  and  _407
REMARK  164  A    between atoms: _406  and  _409
REMARK  165  A    between atoms: _409  and  _410
REMARK  166  A    between atoms: _410  and  _411
REMARK  167  A    between atoms: _416  and  _418
REMARK  168  A    between atoms: _418  and  _419
REMARK  169  A    between atoms: _418  and  _421
REMARK  170  A    between atoms: _424  and  _426
REMARK  171  A    between atoms: _426  and  _427
REMARK  172  A    between atoms: _426  and  _429
REMARK  173  A    between atoms: _429  and  _430
REMARK  174  A    between atoms: _433  and  _435
REMARK  175  A    between atoms: _435  and  _436
REMARK  176  A    between atoms: _435  and  _438
REMARK  177  A    between atoms: _438  and  _439
REMARK  178  A    between atoms: _441  and  _443
REMARK  179  A    between atoms: _443  and  _444
REMARK  180  A    between atoms: _446  and  _448
REMARK  181  A    between atoms: _448  and  _449
REMARK  182  A    between atoms: _448  and  _451
REMARK  183  A    between atoms: _451  and  _452
REMARK  184  A    between atoms: _452  and  _753
REMARK  185  A    between atoms: _453  and  _455
REMARK  186  A    between atoms: _455  and  _456
REMARK  187  A    between atoms: _455  and  _458
REMARK  188  A    between atoms: _458  and  _459
REMARK  189  A    between atoms: _464  and  _465
REMARK  190  A    between atoms: _467  and  _469
REMARK  191  A    between atoms: _469  and  _470
REMARK  192  A    between atoms: _469  and  _472
REMARK  193  A    between atoms: _472  and  _473
REMARK  194  A    between atoms: _473  and  _474
REMARK  195  A    between atoms: _479  and  _481
REMARK  196  A    between atoms: _481  and  _482
REMARK  197  A    between atoms: _481  and  _484
REMARK  198  A    between atoms: _484  and  _485
REMARK  199  A    between atoms: _485  and  _486
REMARK  200  A    between atoms: _491  and  _493
REMARK  201  A    between atoms: _493  and  _494
REMARK  202  A    between atoms: _493  and  _496
REMARK  203  A    between atoms: _496  and  _497
REMARK  204  A    between atoms: _502  and  _503
REMARK  205  A    between atoms: _505  and  _507
REMARK  206  A    between atoms: _507  and  _508
REMARK  207  A    between atoms: _511  and  _513
REMARK  208  A    between atoms: _513  and  _514
REMARK  209  A    between atoms: _513  and  _516
REMARK  210  A    between atoms: _516  and  _517
REMARK  211  A    between atoms: _522  and  _523
REMARK  212  A    between atoms: _525  and  _527
REMARK  213  A    between atoms: _527  and  _528
REMARK  214  A    between atoms: _527  and  _530
REMARK  215  A    between atoms: _530  and  _531
REMARK  216  A    between atoms: _536  and  _537
REMARK  217  A    between atoms: _539  and  _541
REMARK  218  A    between atoms: _541  and  _542
REMARK  219  A    between atoms: _541  and  _544
REMARK  220  A    between atoms: _544  and  _545
REMARK  221  A    between atoms: _548  and  _550
REMARK  222  A    between atoms: _550  and  _551
REMARK  223  A    between atoms: _554  and  _556
REMARK  224  A    between atoms: _556  and  _557
REMARK  225  A    between atoms: _560  and  _562
REMARK  226  A    between atoms: _562  and  _563
REMARK  227  A    between atoms: _562  and  _565
REMARK  228  A    between atoms: _565  and  _566
REMARK  229  A    between atoms: _569  and  _571
REMARK  230  A    between atoms: _571  and  _572
REMARK  231  A    between atoms: _571  and  _574
REMARK  232  A    between atoms: _574  and  _575
REMARK  233  A    between atoms: _578  and  _580
REMARK  234  A    between atoms: _580  and  _581
REMARK  235  A    between atoms: _580  and  _583
REMARK  236  A    between atoms: _583  and  _584
REMARK  237  A    between atoms: _587  and  _589
REMARK  238  A    between atoms: _589  and  _590
REMARK  239  A    between atoms: _589  and  _592
REMARK  240  A    between atoms: _592  and  _593
REMARK  241  A    between atoms: _593  and  _594
REMARK  242  A    between atoms: _594  and  _595
REMARK  243  A    between atoms: _595  and  _596
REMARK  244  A    between atoms: _600  and  _602
REMARK  245  A    between atoms: _602  and  _603
REMARK  246  A    between atoms: _602  and  _605
REMARK  247  A    between atoms: _605  and  _606
REMARK  248  A    between atoms: _611  and  _613
REMARK  249  A    between atoms: _613  and  _614
REMARK  250  A    between atoms: _613  and  _616
REMARK  251  A    between atoms: _616  and  _617
REMARK  252  A    between atoms: _617  and  _618
REMARK  253  A    between atoms: _618  and  _619
REMARK  254  A    between atoms: _619  and  _620
REMARK  255  A    between atoms: _624  and  _626
REMARK  256  A    between atoms: _626  and  _627
REMARK  257  A    between atoms: _626  and  _629
REMARK  258  A    between atoms: _629  and  _630
REMARK  259  A    between atoms: _640  and  _642
REMARK  260  A    between atoms: _642  and  _643
REMARK  261  A    between atoms: _646  and  _648
REMARK  262  A    between atoms: _648  and  _649
REMARK  263  A    between atoms: _648  and  _651
REMARK  264  A    between atoms: _651  and  _652
REMARK  265  A    between atoms: _652  and  _653
REMARK  266  A    between atoms: _656  and  _658
REMARK  267  A    between atoms: _658  and  _659
REMARK  268  A    between atoms: _658  and  _661
REMARK  269  A    between atoms: _661  and  _662
REMARK  270  A    between atoms: _662  and  _663
REMARK  271  A    between atoms: _666  and  _668
REMARK  272  A    between atoms: _668  and  _669
REMARK  273  A    between atoms: _668  and  _671
REMARK  274  A    between atoms: _671  and  _672
REMARK  275  A    between atoms: _672  and  _673
REMARK  276  A    between atoms: _673  and  _674
REMARK  277  A    between atoms: _683  and  _685
REMARK  278  A    between atoms: _685  and  _686
REMARK  279  A    between atoms: _685  and  _688
REMARK  280  A    between atoms: _688  and  _689
REMARK  281  A    between atoms: _692  and  _694
REMARK  282  A    between atoms: _694  and  _695
REMARK  283  A    between atoms: _694  and  _697
REMARK  284  A    between atoms: _697  and  _698
REMARK  285  A    between atoms: _698  and  _699
REMARK  286  A    between atoms: _699  and  _700
REMARK  287  A    between atoms: _709  and  _711
REMARK  288  A    between atoms: _711  and  _712
REMARK  289  A    between atoms: _715  and  _717
REMARK  290  A    between atoms: _717  and  _718
REMARK  291  A    between atoms: _717  and  _720
REMARK  292  A    between atoms: _720  and  _721
REMARK  293  A    between atoms: _726  and  _727
REMARK  294  A    between atoms: _729  and  _731
REMARK  295  A    between atoms: _731  and  _732
REMARK  296  A    between atoms: _731  and  _734
REMARK  297  A    between atoms: _734  and  _735
REMARK  298  A    between atoms: _738  and  _740
REMARK  299  A    between atoms: _740  and  _741
REMARK  300  A    between atoms: _740  and  _743
REMARK  301  A    between atoms: _743  and  _744
REMARK  302  A    between atoms: _747  and  _749
REMARK  303  A    between atoms: _749  and  _750
REMARK  304  A    between atoms: _749  and  _752
REMARK  305  A    between atoms: _752  and  _753
REMARK  306  A    between atoms: _754  and  _756
REMARK  307  A    between atoms: _756  and  _757
REMARK  308  A    between atoms: _756  and  _759
REMARK  309  A    between atoms: _762  and  _764
REMARK  310  A    between atoms: _764  and  _765
REMARK  311  A    between atoms: _764  and  _767
REMARK  312  A    between atoms: _767  and  _768
REMARK  313  A    between atoms: _768  and  _769
REMARK  314  A    between atoms: _772  and  _774
REMARK  315  A    between atoms: _774  and  _775
REMARK  316  A    between atoms: _774  and  _777
REMARK  317  A    between atoms: _777  and  _778
REMARK  318  A    between atoms: _788  and  _790
REMARK  319  A    between atoms: _790  and  _791
REMARK  320  A    between atoms: _790  and  _793
REMARK  321  A    between atoms: _793  and  _794
REMARK  322  A    between atoms: _797  and  _799
REMARK  323  A    between atoms: _799  and  _800
REMARK  324  A    between atoms: _799  and  _802
REMARK  325  A    between atoms: _802  and  _803
REMARK  326  A    between atoms: _808  and  _809
REMARK                            x       y       z     vdW  Elec       q    Type
REMARK                         _______ _______ _______ _____ _____    ______ ____
ROOT
ATOM      1  O   HOH     1      -4.340  10.701 -11.068  0.00  0.00    +0.000 OA
ENDROOT
TORSDOF 0
REMARK  Name = ../refined-set-2016/3p9m/3p9m_pocket.pdb
REMARK  326 active torsions:
REMARK  status: ('A' for Active; 'I' for Inactive)
REMARK    1  A    between atoms: _1  and  _3
REMARK    2  A    between atoms: _3  and  _4
REMARK    3  A    between atoms: _3  and  _6
REMARK    4  A    between atoms: _6  and  _7
REMARK    5  A    between atoms: _10  and  _12
REMARK    6  A    between atoms: _12  and  _13
REMARK    7  A    between atoms: _12  and  _15
REMARK    8  A    between atoms: _15  and  _16
REMARK    9  A    between atoms: _16  and  _17
REMARK   10  A    between atoms: _17  and  _18
REMARK   11  A    between atoms: _27  and  _29
REMARK   12  A    between atoms: _29  and  _30
REMARK   13  A    between atoms: _29  and  _32
REMARK   14  A    between atoms: _32  and  _33
REMARK   15  A    between atoms: _38  and  _39
REMARK   16  A    between atoms: _41  and  _43
REMARK   17  A    between atoms: _43  and  _44
REMARK   18  A    between atoms: _43  and  _46
REMARK   19  A    between atoms: _46  and  _47
REMARK   20  A    between atoms: _53  and  _55
REMARK   21  A    between atoms: _55  and  _56
REMARK   22  A    between atoms: _55  and  _58
REMARK   23  A    between atoms: _61  and  _63
REMARK   24  A    between atoms: _63  and  _64
REMARK   25  A    between atoms: _63  and  _66
REMARK   26  A    between atoms: _66  and  _67
REMARK   27  A    between atoms: _70  and  _72
REMARK   28  A    between atoms: _72  and  _73
REMARK   29  A    between atoms: _72  and  _75
REMARK   30  A    between atoms: _75  and  _76
REMARK   31  A    between atoms: _81  and  _82
REMARK   32  A    between atoms: _84  and  _86
REMARK   33  A    between atoms: _86  and  _87
REMARK   34  A    between atoms: _86  and  _89
REMARK   35  A    between atoms: _89  and  _90
REMARK   36  A    between atoms: _90  and  _91
REMARK   37  A    between atoms: _93  and  _95
REMARK   38  A    between atoms: _95  and  _96
REMARK   39  A    between atoms: _95  and  _98
REMARK   40  A    between atoms: _98  and  _99
REMARK   41  A    between atoms: _99  and  _100
REMARK   42  A    between atoms: _103  and  _105
REMARK   43  A    between atoms: _105  and  _106
REMARK   44  A    between atoms: _105  and  _108
REMARK   45  A    between atoms: _111  and  _113
REMARK   46  A    between atoms: _113  and  _114
REMARK   47  A    between atoms: _116  and  _118
REMARK   48  A    between atoms: _118  and  _119
REMARK   49  A    between atoms: _118  and  _121
REMARK   50  A    between atoms: _121  and  _122
REMARK   51  A    between atoms: _128  and  _130
REMARK   52  A    between atoms: _130  and  _131
REMARK   53  A    between atoms: _130  and  _133
REMARK   54  A    between atoms: _136  and  _138
REMARK   55  A    between atoms: _138  and  _139
REMARK   56  A    between atoms: _138  and  _141
REMARK   57  A    between atoms: _141  and  _142
REMARK   58  A    between atoms: _148  and  _150
REMARK   59  A    between atoms: _150  and  _151
REMARK   60  A    between atoms: _150  and  _153
REMARK   61  A    between atoms: _153  and  _154
REMARK   62  A    between atoms: _159  and  _160
REMARK   63  A    between atoms: _162  and  _164
REMARK   64  A    between atoms: _164  and  _165
REMARK   65  A    between atoms: _164  and  _167
REMARK   66  A    between atoms: _167  and  _168
REMARK   67  A    between atoms: _168  and  _169
REMARK   68  A    between atoms: _171  and  _173
REMARK   69  A    between atoms: _173  and  _174
REMARK   70  A    between atoms: _173  and  _176
REMARK   71  A    between atoms: _176  and  _177
REMARK   72  A    between atoms: _182  and  _183
REMARK   73  A    between atoms: _185  and  _187
REMARK   74  A    between atoms: _187  and  _188
REMARK   75  A    between atoms: _187  and  _190
REMARK   76  A    between atoms: _190  and  _191
REMARK   77  A    between atoms: _191  and  _192
REMARK   78  A    between atoms: _192  and  _193
REMARK   79  A    between atoms: _202  and  _204
REMARK   80  A    between atoms: _204  and  _205
REMARK   81  A    between atoms: _204  and  _207
REMARK   82  A    between atoms: _207  and  _208
REMARK   83  A    between atoms: _208  and  _209
REMARK   84  A    between atoms: _212  and  _214
REMARK   85  A    between atoms: _214  and  _215
REMARK   86  A    between atoms: _214  and  _217
REMARK   87  A    between atoms: _217  and  _218
REMARK   88  A    between atoms: _218  and  _219
REMARK   89  A    between atoms: _219  and  _220
REMARK   90  A    between atoms: _220  and  _221
REMARK   91  A    between atoms: _225  and  _227
REMARK   92  A    between atoms: _227  and  _228
REMARK   93  A    between atoms: _231  and  _233
REMARK   94  A    between atoms: _233  and  _234
REMARK   95  A    between atoms: _236  and  _238
REMARK   96  A    between atoms: _238  and  _239
REMARK   97  A    between atoms: _238  and  _241
REMARK   98  A    between atoms: _241  and  _242
REMARK   99  A    between atoms: _247  and  _249
REMARK  100  A    between atoms: _249  and  _250
REMARK  101  A    between atoms: _249  and  _252
REMARK  102  A    between atoms: _252  and  _253
REMARK  103  A    between atoms: _253  and  _254
REMARK  104  A    between atoms: _257  and  _259
REMARK  105  A    between atoms: _259  and  _260
REMARK  106  A    between atoms: _259  and  _262
REMARK  107  A    between atoms: _262  and  _263
REMARK  108  A    between atoms: _263  and  _264
REMARK  109  A    between atoms: _269  and  _271
REMARK  110  A    between atoms: _271  and  _272
REMARK  111  A    between atoms: _271  and  _274
REMARK  112  A    between atoms: _274  and  _275
REMARK  113  A    between atoms: _277  and  _279
REMARK  114  A    between atoms: _279  and  _280
REMARK  115  A    between atoms: _279  and  _282
REMARK  116  A    between atoms: _282  and  _283
REMARK  117  A    between atoms: _289  and  _291
REMARK  118  A    between atoms: _291  and  _292
REMARK  119  A    between atoms: _291  and  _294
REMARK  120  A    between atoms: _294  and  _295
REMARK  121  A    between atoms: _295  and  _296
REMARK  122  A    between atoms: _296  and  _297
REMARK  123  A    between atoms: _306  and  _308
REMARK  124  A    between atoms: _308  and  _309
REMARK  125  A    between atoms: _308  and  _311
REMARK  126  A    between atoms: _314  and  _316
REMARK  127  A    between atoms: _316  and  _317
REMARK  128  A    between atoms: _316  and  _319
REMARK  129  A    between atoms: _319  and  _320
REMARK  130  A    between atoms: _323  and  _325
REMARK  131  A    between atoms: _325  and  _326
REMARK  132  A    between atoms: _325  and  _328
REMARK  133  A    between atoms: _328  and  _329
REMARK  134  A    between atoms: _332  and  _334
REMARK  135  A    between atoms: _334  and  _335
REMARK  136  A    between atoms: _334  and  _337
REMARK  137  A    between atoms: _337  and  _338
REMARK  138  A    between atoms: _338  and  _339
REMARK  139  A    between atoms: _339  and  _340
REMARK  140  A    between atoms: _349  and  _351
REMARK  141  A    between atoms: _351  and  _352
REMARK  142  A    between atoms: _351  and  _354
REMARK  143  A    between atoms: _354  and  _355
REMARK  144  A    between atoms: _358  and  _360
REMARK  145  A    between atoms: _360  and  _361
REMARK  146  A    between atoms: _360  and  _363
REMARK  147  A    between atoms: _363  and  _364
REMARK  148  A    between atoms: _367  and  _369
REMARK  149  A    between atoms: _369  and  _370
REMARK  150  A    between atoms: _369  and  _372
REMARK  151  A    between atoms: _372  and  _373
REMARK  152  A    between atoms: _378  and  _379
REMARK  153  A    between atoms: _381  and  _383
REMARK  154  A    between atoms: _383  and  _384
REMARK  155  A    between atoms: _383  and  _386
REMARK  156  A    between atoms: _386  and  _387
REMARK  157  A    between atoms: _392  and  _393
REMARK  158  A    between atoms: _395  and  _397
REMARK  159  A    between atoms: _397  and  _398
REMARK  160  A    between atoms: _397  and  _400
REMARK  161  A    between atoms: _400  and  _401
REMARK  162  A    between atoms: _404  and  _406
REMARK  163  A    between atoms: _406  and  _407
REMARK  164  A    between atoms: _406  and  _409
REMARK  165  A    between atoms: _409  and  _410
REMARK  166  A    between atoms: _410  and  _411
REMARK  167  A    between atoms: _416  and  _418
REMARK  168  A    between atoms: _418  and  _419
REMARK  169  A    between atoms: _418  and  _421
REMARK  170  A    between atoms: _424  and  _426
REMARK  171  A    between atoms: _426  and  _427
REMARK  172  A    between atoms: _426  and  _429
REMARK  173  A    between atoms: _429  and  _430
REMARK  174  A    between atoms: _433  and  _435
REMARK  175  A    between atoms: _435  and  _436
REMARK  176  A    between atoms: _435  and  _438
REMARK  177  A    between atoms: _438  and  _439
REMARK  178  A    between atoms: _441  and  _443
REMARK  179  A    between atoms: _443  and  _444
REMARK  180  A    between atoms: _446  and  _448
REMARK  181  A    between atoms: _448  and  _449
REMARK  182  A    between atoms: _448  and  _451
REMARK  183  A    between atoms: _451  and  _452
REMARK  184  A    between atoms: _452  and  _753
REMARK  185  A    between atoms: _453  and  _455
REMARK  186  A    between atoms: _455  and  _456
REMARK  187  A    between atoms: _455  and  _458
REMARK  188  A    between atoms: _458  and  _459
REMARK  189  A    between atoms: _464  and  _465
REMARK  190  A    between atoms: _467  and  _469
REMARK  191  A    between atoms: _469  and  _470
REMARK  192  A    between atoms: _469  and  _472
REMARK  193  A    between atoms: _472  and  _473
REMARK  194  A    between atoms: _473  and  _474
REMARK  195  A    between atoms: _479  and  _481
REMARK  196  A    between atoms: _481  and  _482
REMARK  197  A    between atoms: _481  and  _484
REMARK  198  A    between atoms: _484  and  _485
REMARK  199  A    between atoms: _485  and  _486
REMARK  200  A    between atoms: _491  and  _493
REMARK  201  A    between atoms: _493  and  _494
REMARK  202  A    between atoms: _493  and  _496
REMARK  203  A    between atoms: _496  and  _497
REMARK  204  A    between atoms: _502  and  _503
REMARK  205  A    between atoms: _505  and  _507
REMARK  206  A    between atoms: _507  and  _508
REMARK  207  A    between atoms: _511  and  _513
REMARK  208  A    between atoms: _513  and  _514
REMARK  209  A    between atoms: _513  and  _516
REMARK  210  A    between atoms: _516  and  _517
REMARK  211  A    between atoms: _522  and  _523
REMARK  212  A    between atoms: _525  and  _527
REMARK  213  A    between atoms: _527  and  _528
REMARK  214  A    between atoms: _527  and  _530
REMARK  215  A    between atoms: _530  and  _531
REMARK  216  A    between atoms: _536  and  _537
REMARK  217  A    between atoms: _539  and  _541
REMARK  218  A    between atoms: _541  and  _542
REMARK  219  A    between atoms: _541  and  _544
REMARK  220  A    between atoms: _544  and  _545
REMARK  221  A    between atoms: _548  and  _550
REMARK  222  A    between atoms: _550  and  _551
REMARK  223  A    between atoms: _554  and  _556
REMARK  224  A    between atoms: _556  and  _557
REMARK  225  A    between atoms: _560  and  _562
REMARK  226  A    between atoms: _562  and  _563
REMARK  227  A    between atoms: _562  and  _565
REMARK  228  A    between atoms: _565  and  _566
REMARK  229  A    between atoms: _569  and  _571
REMARK  230  A    between atoms: _571  and  _572
REMARK  231  A    between atoms: _571  and  _574
REMARK  232  A    between atoms: _574  and  _575
REMARK  233  A    between atoms: _578  and  _580
REMARK  234  A    between atoms: _580  and  _581
REMARK  235  A    between atoms: _580  and  _583
REMARK  236  A    between atoms: _583  and  _584
REMARK  237  A    between atoms: _587  and  _589
REMARK  238  A    between atoms: _589  and  _590
REMARK  239  A    between atoms: _589  and  _592
REMARK  240  A    between atoms: _592  and  _593
REMARK  241  A    between atoms: _593  and  _594
REMARK  242  A    between atoms: _594  and  _595
REMARK  243  A    between atoms: _595  and  _596
REMARK  244  A    between atoms: _600  and  _602
REMARK  245  A    between atoms: _602  and  _603
REMARK  246  A    between atoms: _602  and  _605
REMARK  247  A    between atoms: _605  and  _606
REMARK  248  A    between atoms: _611  and  _613
REMARK  249  A    between atoms: _613  and  _614
REMARK  250  A    between atoms: _613  and  _616
REMARK  251  A    between atoms: _616  and  _617
REMARK  252  A    between atoms: _617  and  _618
REMARK  253  A    between atoms: _618  and  _619
REMARK  254  A    between atoms: _619  and  _620
REMARK  255  A    between atoms: _624  and  _626
REMARK  256  A    between atoms: _626  and  _627
REMARK  257  A    between atoms: _626  and  _629
REMARK  258  A    between atoms: _629  and  _630
REMARK  259  A    between atoms: _640  and  _642
REMARK  260  A    between atoms: _642  and  _643
REMARK  261  A    between atoms: _646  and  _648
REMARK  262  A    between atoms: _648  and  _649
REMARK  263  A    between atoms: _648  and  _651
REMARK  264  A    between atoms: _651  and  _652
REMARK  265  A    between atoms: _652  and  _653
REMARK  266  A    between atoms: _656  and  _658
REMARK  267  A    between atoms: _658  and  _659
REMARK  268  A    between atoms: _658  and  _661
REMARK  269  A    between atoms: _661  and  _662
REMARK  270  A    between atoms: _662  and  _663
REMARK  271  A    between atoms: _666  and  _668
REMARK  272  A    between atoms: _668  and  _669
REMARK  273  A    between atoms: _668  and  _671
REMARK  274  A    between atoms: _671  and  _672
REMARK  275  A    between atoms: _672  and  _673
REMARK  276  A    between atoms: _673  and  _674
REMARK  277  A    between atoms: _683  and  _685
REMARK  278  A    between atoms: _685  and  _686
REMARK  279  A    between atoms: _685  and  _688
REMARK  280  A    between atoms: _688  and  _689
REMARK  281  A    between atoms: _692  and  _694
REMARK  282  A    between atoms: _694  and  _695
REMARK  283  A    between atoms: _694  and  _697
REMARK  284  A    between atoms: _697  and  _698
REMARK  285  A    between atoms: _698  and  _699
REMARK  286  A    between atoms: _699  and  _700
REMARK  287  A    between atoms: _709  and  _711
REMARK  288  A    between atoms: _711  and  _712
REMARK  289  A    between atoms: _715  and  _717
REMARK  290  A    between atoms: _717  and  _718
REMARK  291  A    between atoms: _717  and  _720
REMARK  292  A    between atoms: _720  and  _721
REMARK  293  A    between atoms: _726  and  _727
REMARK  294  A    between atoms: _729  and  _731
REMARK  295  A    between atoms: _731  and  _732
REMARK  296  A    between atoms: _731  and  _734
REMARK  297  A    between atoms: _734  and  _735
REMARK  298  A    between atoms: _738  and  _740
REMARK  299  A    between atoms: _740  and  _741
REMARK  300  A    between atoms: _740  and  _743
REMARK  301  A    between atoms: _743  and  _744
REMARK  302  A    between atoms: _747  and  _749
REMARK  303  A    between atoms: _749  and  _750
REMARK  304  A    between atoms: _749  and  _752
REMARK  305  A    between atoms: _752  and  _753
REMARK  306  A    between atoms: _754  and  _756
REMARK  307  A    between atoms: _756  and  _757
REMARK  308  A    between atoms: _756  and  _759
REMARK  309  A    between atoms: _762  and  _764
REMARK  310  A    between atoms: _764  and  _765
REMARK  311  A    between atoms: _764  and  _767
REMARK  312  A    between atoms: _767  and  _768
REMARK  313  A    between atoms: _768  and  _769
REMARK  314  A    between atoms: _772  and  _774
REMARK  315  A    between atoms: _774  and  _775
REMARK  316  A    between atoms: _774  and  _777
REMARK  317  A    between atoms: _777  and  _778
REMARK  318  A    between atoms: _788  and  _790
REMARK  319  A    between atoms: _790  and  _791
REMARK  320  A    between atoms: _790  and  _793
REMARK  321  A    between atoms: _793  and  _794
REMARK  322  A    between atoms: _797  and  _799
REMARK  323  A    between atoms: _799  and  _800
REMARK  324  A    between atoms: _799  and  _802
REMARK  325  A    between atoms: _802  and  _803
REMARK  326  A    between atoms: _808  and  _809
REMARK                            x       y       z     vdW  Elec       q    Type
REMARK                         _______ _______ _______ _____ _____    ______ ____
ROOT
ATOM      1  O   HOH     1      -1.326  11.185  -6.152  0.00  0.00    +0.000 OA
ENDROOT
TORSDOF 0
REMARK  Name = ../refined-set-2016/3p9m/3p9m_pocket.pdb
REMARK  326 active torsions:
REMARK  status: ('A' for Active; 'I' for Inactive)
REMARK    1  A    between atoms: _1  and  _3
REMARK    2  A    between atoms: _3  and  _4
REMARK    3  A    between atoms: _3  and  _6
REMARK    4  A    between atoms: _6  and  _7
REMARK    5  A    between atoms: _10  and  _12
REMARK    6  A    between atoms: _12  and  _13
REMARK    7  A    between atoms: _12  and  _15
REMARK    8  A    between atoms: _15  and  _16
REMARK    9  A    between atoms: _16  and  _17
REMARK   10  A    between atoms: _17  and  _18
REMARK   11  A    between atoms: _27  and  _29
REMARK   12  A    between atoms: _29  and  _30
REMARK   13  A    between atoms: _29  and  _32
REMARK   14  A    between atoms: _32  and  _33
REMARK   15  A    between atoms: _38  and  _39
REMARK   16  A    between atoms: _41  and  _43
REMARK   17  A    between atoms: _43  and  _44
REMARK   18  A    between atoms: _43  and  _46
REMARK   19  A    between atoms: _46  and  _47
REMARK   20  A    between atoms: _53  and  _55
REMARK   21  A    between atoms: _55  and  _56
REMARK   22  A    between atoms: _55  and  _58
REMARK   23  A    between atoms: _61  and  _63
REMARK   24  A    between atoms: _63  and  _64
REMARK   25  A    between atoms: _63  and  _66
REMARK   26  A    between atoms: _66  and  _67
REMARK   27  A    between atoms: _70  and  _72
REMARK   28  A    between atoms: _72  and  _73
REMARK   29  A    between atoms: _72  and  _75
REMARK   30  A    between atoms: _75  and  _76
REMARK   31  A    between atoms: _81  and  _82
REMARK   32  A    between atoms: _84  and  _86
REMARK   33  A    between atoms: _86  and  _87
REMARK   34  A    between atoms: _86  and  _89
REMARK   35  A    between atoms: _89  and  _90
REMARK   36  A    between atoms: _90  and  _91
REMARK   37  A    between atoms: _93  and  _95
REMARK   38  A    between atoms: _95  and  _96
REMARK   39  A    between atoms: _95  and  _98
REMARK   40  A    between atoms: _98  and  _99
REMARK   41  A    between atoms: _99  and  _100
REMARK   42  A    between atoms: _103  and  _105
REMARK   43  A    between atoms: _105  and  _106
REMARK   44  A    between atoms: _105  and  _108
REMARK   45  A    between atoms: _111  and  _113
REMARK   46  A    between atoms: _113  and  _114
REMARK   47  A    between atoms: _116  and  _118
REMARK   48  A    between atoms: _118  and  _119
REMARK   49  A    between atoms: _118  and  _121
REMARK   50  A    between atoms: _121  and  _122
REMARK   51  A    between atoms: _128  and  _130
REMARK   52  A    between atoms: _130  and  _131
REMARK   53  A    between atoms: _130  and  _133
REMARK   54  A    between atoms: _136  and  _138
REMARK   55  A    between atoms: _138  and  _139
REMARK   56  A    between atoms: _138  and  _141
REMARK   57  A    between atoms: _141  and  _142
REMARK   58  A    between atoms: _148  and  _150
REMARK   59  A    between atoms: _150  and  _151
REMARK   60  A    between atoms: _150  and  _153
REMARK   61  A    between atoms: _153  and  _154
REMARK   62  A    between atoms: _159  and  _160
REMARK   63  A    between atoms: _162  and  _164
REMARK   64  A    between atoms: _164  and  _165
REMARK   65  A    between atoms: _164  and  _167
REMARK   66  A    between atoms: _167  and  _168
REMARK   67  A    between atoms: _168  and  _169
REMARK   68  A    between atoms: _171  and  _173
REMARK   69  A    between atoms: _173  and  _174
REMARK   70  A    between atoms: _173  and  _176
REMARK   71  A    between atoms: _176  and  _177
REMARK   72  A    between atoms: _182  and  _183
REMARK   73  A    between atoms: _185  and  _187
REMARK   74  A    between atoms: _187  and  _188
REMARK   75  A    between atoms: _187  and  _190
REMARK   76  A    between atoms: _190  and  _191
REMARK   77  A    between atoms: _191  and  _192
REMARK   78  A    between atoms: _192  and  _193
REMARK   79  A    between atoms: _202  and  _204
REMARK   80  A    between atoms: _204  and  _205
REMARK   81  A    between atoms: _204  and  _207
REMARK   82  A    between atoms: _207  and  _208
REMARK   83  A    between atoms: _208  and  _209
REMARK   84  A    between atoms: _212  and  _214
REMARK   85  A    between atoms: _214  and  _215
REMARK   86  A    between atoms: _214  and  _217
REMARK   87  A    between atoms: _217  and  _218
REMARK   88  A    between atoms: _218  and  _219
REMARK   89  A    between atoms: _219  and  _220
REMARK   90  A    between atoms: _220  and  _221
REMARK   91  A    between atoms: _225  and  _227
REMARK   92  A    between atoms: _227  and  _228
REMARK   93  A    between atoms: _231  and  _233
REMARK   94  A    between atoms: _233  and  _234
REMARK   95  A    between atoms: _236  and  _238
REMARK   96  A    between atoms: _238  and  _239
REMARK   97  A    between atoms: _238  and  _241
REMARK   98  A    between atoms: _241  and  _242
REMARK   99  A    between atoms: _247  and  _249
REMARK  100  A    between atoms: _249  and  _250
REMARK  101  A    between atoms: _249  and  _252
REMARK  102  A    between atoms: _252  and  _253
REMARK  103  A    between atoms: _253  and  _254
REMARK  104  A    between atoms: _257  and  _259
REMARK  105  A    between atoms: _259  and  _260
REMARK  106  A    between atoms: _259  and  _262
REMARK  107  A    between atoms: _262  and  _263
REMARK  108  A    between atoms: _263  and  _264
REMARK  109  A    between atoms: _269  and  _271
REMARK  110  A    between atoms: _271  and  _272
REMARK  111  A    between atoms: _271  and  _274
REMARK  112  A    between atoms: _274  and  _275
REMARK  113  A    between atoms: _277  and  _279
REMARK  114  A    between atoms: _279  and  _280
REMARK  115  A    between atoms: _279  and  _282
REMARK  116  A    between atoms: _282  and  _283
REMARK  117  A    between atoms: _289  and  _291
REMARK  118  A    between atoms: _291  and  _292
REMARK  119  A    between atoms: _291  and  _294
REMARK  120  A    between atoms: _294  and  _295
REMARK  121  A    between atoms: _295  and  _296
REMARK  122  A    between atoms: _296  and  _297
REMARK  123  A    between atoms: _306  and  _308
REMARK  124  A    between atoms: _308  and  _309
REMARK  125  A    between atoms: _308  and  _311
REMARK  126  A    between atoms: _314  and  _316
REMARK  127  A    between atoms: _316  and  _317
REMARK  128  A    between atoms: _316  and  _319
REMARK  129  A    between atoms: _319  and  _320
REMARK  130  A    between atoms: _323  and  _325
REMARK  131  A    between atoms: _325  and  _326
REMARK  132  A    between atoms: _325  and  _328
REMARK  133  A    between atoms: _328  and  _329
REMARK  134  A    between atoms: _332  and  _334
REMARK  135  A    between atoms: _334  and  _335
REMARK  136  A    between atoms: _334  and  _337
REMARK  137  A    between atoms: _337  and  _338
REMARK  138  A    between atoms: _338  and  _339
REMARK  139  A    between atoms: _339  and  _340
REMARK  140  A    between atoms: _349  and  _351
REMARK  141  A    between atoms: _351  and  _352
REMARK  142  A    between atoms: _351  and  _354
REMARK  143  A    between atoms: _354  and  _355
REMARK  144  A    between atoms: _358  and  _360
REMARK  145  A    between atoms: _360  and  _361
REMARK  146  A    between atoms: _360  and  _363
REMARK  147  A    between atoms: _363  and  _364
REMARK  148  A    between atoms: _367  and  _369
REMARK  149  A    between atoms: _369  and  _370
REMARK  150  A    between atoms: _369  and  _372
REMARK  151  A    between atoms: _372  and  _373
REMARK  152  A    between atoms: _378  and  _379
REMARK  153  A    between atoms: _381  and  _383
REMARK  154  A    between atoms: _383  and  _384
REMARK  155  A    between atoms: _383  and  _386
REMARK  156  A    between atoms: _386  and  _387
REMARK  157  A    between atoms: _392  and  _393
REMARK  158  A    between atoms: _395  and  _397
REMARK  159  A    between atoms: _397  and  _398
REMARK  160  A    between atoms: _397  and  _400
REMARK  161  A    between atoms: _400  and  _401
REMARK  162  A    between atoms: _404  and  _406
REMARK  163  A    between atoms: _406  and  _407
REMARK  164  A    between atoms: _406  and  _409
REMARK  165  A    between atoms: _409  and  _410
REMARK  166  A    between atoms: _410  and  _411
REMARK  167  A    between atoms: _416  and  _418
REMARK  168  A    between atoms: _418  and  _419
REMARK  169  A    between atoms: _418  and  _421
REMARK  170  A    between atoms: _424  and  _426
REMARK  171  A    between atoms: _426  and  _427
REMARK  172  A    between atoms: _426  and  _429
REMARK  173  A    between atoms: _429  and  _430
REMARK  174  A    between atoms: _433  and  _435
REMARK  175  A    between atoms: _435  and  _436
REMARK  176  A    between atoms: _435  and  _438
REMARK  177  A    between atoms: _438  and  _439
REMARK  178  A    between atoms: _441  and  _443
REMARK  179  A    between atoms: _443  and  _444
REMARK  180  A    between atoms: _446  and  _448
REMARK  181  A    between atoms: _448  and  _449
REMARK  182  A    between atoms: _448  and  _451
REMARK  183  A    between atoms: _451  and  _452
REMARK  184  A    between atoms: _452  and  _753
REMARK  185  A    between atoms: _453  and  _455
REMARK  186  A    between atoms: _455  and  _456
REMARK  187  A    between atoms: _455  and  _458
REMARK  188  A    between atoms: _458  and  _459
REMARK  189  A    between atoms: _464  and  _465
REMARK  190  A    between atoms: _467  and  _469
REMARK  191  A    between atoms: _469  and  _470
REMARK  192  A    between atoms: _469  and  _472
REMARK  193  A    between atoms: _472  and  _473
REMARK  194  A    between atoms: _473  and  _474
REMARK  195  A    between atoms: _479  and  _481
REMARK  196  A    between atoms: _481  and  _482
REMARK  197  A    between atoms: _481  and  _484
REMARK  198  A    between atoms: _484  and  _485
REMARK  199  A    between atoms: _485  and  _486
REMARK  200  A    between atoms: _491  and  _493
REMARK  201  A    between atoms: _493  and  _494
REMARK  202  A    between atoms: _493  and  _496
REMARK  203  A    between atoms: _496  and  _497
REMARK  204  A    between atoms: _502  and  _503
REMARK  205  A    between atoms: _505  and  _507
REMARK  206  A    between atoms: _507  and  _508
REMARK  207  A    between atoms: _511  and  _513
REMARK  208  A    between atoms: _513  and  _514
REMARK  209  A    between atoms: _513  and  _516
REMARK  210  A    between atoms: _516  and  _517
REMARK  211  A    between atoms: _522  and  _523
REMARK  212  A    between atoms: _525  and  _527
REMARK  213  A    between atoms: _527  and  _528
REMARK  214  A    between atoms: _527  and  _530
REMARK  215  A    between atoms: _530  and  _531
REMARK  216  A    between atoms: _536  and  _537
REMARK  217  A    between atoms: _539  and  _541
REMARK  218  A    between atoms: _541  and  _542
REMARK  219  A    between atoms: _541  and  _544
REMARK  220  A    between atoms: _544  and  _545
REMARK  221  A    between atoms: _548  and  _550
REMARK  222  A    between atoms: _550  and  _551
REMARK  223  A    between atoms: _554  and  _556
REMARK  224  A    between atoms: _556  and  _557
REMARK  225  A    between atoms: _560  and  _562
REMARK  226  A    between atoms: _562  and  _563
REMARK  227  A    between atoms: _562  and  _565
REMARK  228  A    between atoms: _565  and  _566
REMARK  229  A    between atoms: _569  and  _571
REMARK  230  A    between atoms: _571  and  _572
REMARK  231  A    between atoms: _571  and  _574
REMARK  232  A    between atoms: _574  and  _575
REMARK  233  A    between atoms: _578  and  _580
REMARK  234  A    between atoms: _580  and  _581
REMARK  235  A    between atoms: _580  and  _583
REMARK  236  A    between atoms: _583  and  _584
REMARK  237  A    between atoms: _587  and  _589
REMARK  238  A    between atoms: _589  and  _590
REMARK  239  A    between atoms: _589  and  _592
REMARK  240  A    between atoms: _592  and  _593
REMARK  241  A    between atoms: _593  and  _594
REMARK  242  A    between atoms: _594  and  _595
REMARK  243  A    between atoms: _595  and  _596
REMARK  244  A    between atoms: _600  and  _602
REMARK  245  A    between atoms: _602  and  _603
REMARK  246  A    between atoms: _602  and  _605
REMARK  247  A    between atoms: _605  and  _606
REMARK  248  A    between atoms: _611  and  _613
REMARK  249  A    between atoms: _613  and  _614
REMARK  250  A    between atoms: _613  and  _616
REMARK  251  A    between atoms: _616  and  _617
REMARK  252  A    between atoms: _617  and  _618
REMARK  253  A    between atoms: _618  and  _619
REMARK  254  A    between atoms: _619  and  _620
REMARK  255  A    between atoms: _624  and  _626
REMARK  256  A    between atoms: _626  and  _627
REMARK  257  A    between atoms: _626  and  _629
REMARK  258  A    between atoms: _629  and  _630
REMARK  259  A    between atoms: _640  and  _642
REMARK  260  A    between atoms: _642  and  _643
REMARK  261  A    between atoms: _646  and  _648
REMARK  262  A    between atoms: _648  and  _649
REMARK  263  A    between atoms: _648  and  _651
REMARK  264  A    between atoms: _651  and  _652
REMARK  265  A    between atoms: _652  and  _653
REMARK  266  A    between atoms: _656  and  _658
REMARK  267  A    between atoms: _658  and  _659
REMARK  268  A    between atoms: _658  and  _661
REMARK  269  A    between atoms: _661  and  _662
REMARK  270  A    between atoms: _662  and  _663
REMARK  271  A    between atoms: _666  and  _668
REMARK  272  A    between atoms: _668  and  _669
REMARK  273  A    between atoms: _668  and  _671
REMARK  274  A    between atoms: _671  and  _672
REMARK  275  A    between atoms: _672  and  _673
REMARK  276  A    between atoms: _673  and  _674
REMARK  277  A    between atoms: _683  and  _685
REMARK  278  A    between atoms: _685  and  _686
REMARK  279  A    between atoms: _685  and  _688
REMARK  280  A    between atoms: _688  and  _689
REMARK  281  A    between atoms: _692  and  _694
REMARK  282  A    between atoms: _694  and  _695
REMARK  283  A    between atoms: _694  and  _697
REMARK  284  A    between atoms: _697  and  _698
REMARK  285  A    between atoms: _698  and  _699
REMARK  286  A    between atoms: _699  and  _700
REMARK  287  A    between atoms: _709  and  _711
REMARK  288  A    between atoms: _711  and  _712
REMARK  289  A    between atoms: _715  and  _717
REMARK  290  A    between atoms: _717  and  _718
REMARK  291  A    between atoms: _717  and  _720
REMARK  292  A    between atoms: _720  and  _721
REMARK  293  A    between atoms: _726  and  _727
REMARK  294  A    between atoms: _729  and  _731
REMARK  295  A    between atoms: _731  and  _732
REMARK  296  A    between atoms: _731  and  _734
REMARK  297  A    between atoms: _734  and  _735
REMARK  298  A    between atoms: _738  and  _740
REMARK  299  A    between atoms: _740  and  _741
REMARK  300  A    between atoms: _740  and  _743
REMARK  301  A    between atoms: _743  and  _744
REMARK  302  A    between atoms: _747  and  _749
REMARK  303  A    between atoms: _749  and  _750
REMARK  304  A    between atoms: _749  and  _752
REMARK  305  A    between atoms: _752  and  _753
REMARK  306  A    between atoms: _754  and  _756
REMARK  307  A    between atoms: _756  and  _757
REMARK  308  A    between atoms: _756  and  _759
REMARK  309  A    between atoms: _762  and  _764
REMARK  310  A    between atoms: _764  and  _765
REMARK  311  A    between atoms: _764  and  _767
REMARK  312  A    between atoms: _767  and  _768
REMARK  313  A    between atoms: _768  and  _769
REMARK  314  A    between atoms: _772  and  _774
REMARK  315  A    between atoms: _774  and  _775
REMARK  316  A    between atoms: _774  and  _777
REMARK  317  A    between atoms: _777  and  _778
REMARK  318  A    between atoms: _788  and  _790
REMARK  319  A    between atoms: _790  and  _791
REMARK  320  A    between atoms: _790  and  _793
REMARK  321  A    between atoms: _793  and  _794
REMARK  322  A    between atoms: _797  and  _799
REMARK  323  A    between atoms: _799  and  _800
REMARK  324  A    between atoms: _799  and  _802
REMARK  325  A    between atoms: _802  and  _803
REMARK  326  A    between atoms: _808  and  _809
REMARK                            x       y       z     vdW  Elec       q    Type
REMARK                         _______ _______ _______ _____ _____    ______ ____
ROOT
ATOM      1  O   HOH     1      -1.878  12.063  -9.877  0.00  0.00    +0.000 OA
ENDROOT
TORSDOF 0
REMARK  Name = ../refined-set-2016/3p9m/3p9m_pocket.pdb
REMARK  326 active torsions:
REMARK  status: ('A' for Active; 'I' for Inactive)
REMARK    1  A    between atoms: _1  and  _3
REMARK    2  A    between atoms: _3  and  _4
REMARK    3  A    between atoms: _3  and  _6
REMARK    4  A    between atoms: _6  and  _7
REMARK    5  A    between atoms: _10  and  _12
REMARK    6  A    between atoms: _12  and  _13
REMARK    7  A    between atoms: _12  and  _15
REMARK    8  A    between atoms: _15  and  _16
REMARK    9  A    between atoms: _16  and  _17
REMARK   10  A    between atoms: _17  and  _18
REMARK   11  A    between atoms: _27  and  _29
REMARK   12  A    between atoms: _29  and  _30
REMARK   13  A    between atoms: _29  and  _32
REMARK   14  A    between atoms: _32  and  _33
REMARK   15  A    between atoms: _38  and  _39
REMARK   16  A    between atoms: _41  and  _43
REMARK   17  A    between atoms: _43  and  _44
REMARK   18  A    between atoms: _43  and  _46
REMARK   19  A    between atoms: _46  and  _47
REMARK   20  A    between atoms: _53  and  _55
REMARK   21  A    between atoms: _55  and  _56
REMARK   22  A    between atoms: _55  and  _58
REMARK   23  A    between atoms: _61  and  _63
REMARK   24  A    between atoms: _63  and  _64
REMARK   25  A    between atoms: _63  and  _66
REMARK   26  A    between atoms: _66  and  _67
REMARK   27  A    between atoms: _70  and  _72
REMARK   28  A    between atoms: _72  and  _73
REMARK   29  A    between atoms: _72  and  _75
REMARK   30  A    between atoms: _75  and  _76
REMARK   31  A    between atoms: _81  and  _82
REMARK   32  A    between atoms: _84  and  _86
REMARK   33  A    between atoms: _86  and  _87
REMARK   34  A    between atoms: _86  and  _89
REMARK   35  A    between atoms: _89  and  _90
REMARK   36  A    between atoms: _90  and  _91
REMARK   37  A    between atoms: _93  and  _95
REMARK   38  A    between atoms: _95  and  _96
REMARK   39  A    between atoms: _95  and  _98
REMARK   40  A    between atoms: _98  and  _99
REMARK   41  A    between atoms: _99  and  _100
REMARK   42  A    between atoms: _103  and  _105
REMARK   43  A    between atoms: _105  and  _106
REMARK   44  A    between atoms: _105  and  _108
REMARK   45  A    between atoms: _111  and  _113
REMARK   46  A    between atoms: _113  and  _114
REMARK   47  A    between atoms: _116  and  _118
REMARK   48  A    between atoms: _118  and  _119
REMARK   49  A    between atoms: _118  and  _121
REMARK   50  A    between atoms: _121  and  _122
REMARK   51  A    between atoms: _128  and  _130
REMARK   52  A    between atoms: _130  and  _131
REMARK   53  A    between atoms: _130  and  _133
REMARK   54  A    between atoms: _136  and  _138
REMARK   55  A    between atoms: _138  and  _139
REMARK   56  A    between atoms: _138  and  _141
REMARK   57  A    between atoms: _141  and  _142
REMARK   58  A    between atoms: _148  and  _150
REMARK   59  A    between atoms: _150  and  _151
REMARK   60  A    between atoms: _150  and  _153
REMARK   61  A    between atoms: _153  and  _154
REMARK   62  A    between atoms: _159  and  _160
REMARK   63  A    between atoms: _162  and  _164
REMARK   64  A    between atoms: _164  and  _165
REMARK   65  A    between atoms: _164  and  _167
REMARK   66  A    between atoms: _167  and  _168
REMARK   67  A    between atoms: _168  and  _169
REMARK   68  A    between atoms: _171  and  _173
REMARK   69  A    between atoms: _173  and  _174
REMARK   70  A    between atoms: _173  and  _176
REMARK   71  A    between atoms: _176  and  _177
REMARK   72  A    between atoms: _182  and  _183
REMARK   73  A    between atoms: _185  and  _187
REMARK   74  A    between atoms: _187  and  _188
REMARK   75  A    between atoms: _187  and  _190
REMARK   76  A    between atoms: _190  and  _191
REMARK   77  A    between atoms: _191  and  _192
REMARK   78  A    between atoms: _192  and  _193
REMARK   79  A    between atoms: _202  and  _204
REMARK   80  A    between atoms: _204  and  _205
REMARK   81  A    between atoms: _204  and  _207
REMARK   82  A    between atoms: _207  and  _208
REMARK   83  A    between atoms: _208  and  _209
REMARK   84  A    between atoms: _212  and  _214
REMARK   85  A    between atoms: _214  and  _215
REMARK   86  A    between atoms: _214  and  _217
REMARK   87  A    between atoms: _217  and  _218
REMARK   88  A    between atoms: _218  and  _219
REMARK   89  A    between atoms: _219  and  _220
REMARK   90  A    between atoms: _220  and  _221
REMARK   91  A    between atoms: _225  and  _227
REMARK   92  A    between atoms: _227  and  _228
REMARK   93  A    between atoms: _231  and  _233
REMARK   94  A    between atoms: _233  and  _234
REMARK   95  A    between atoms: _236  and  _238
REMARK   96  A    between atoms: _238  and  _239
REMARK   97  A    between atoms: _238  and  _241
REMARK   98  A    between atoms: _241  and  _242
REMARK   99  A    between atoms: _247  and  _249
REMARK  100  A    between atoms: _249  and  _250
REMARK  101  A    between atoms: _249  and  _252
REMARK  102  A    between atoms: _252  and  _253
REMARK  103  A    between atoms: _253  and  _254
REMARK  104  A    between atoms: _257  and  _259
REMARK  105  A    between atoms: _259  and  _260
REMARK  106  A    between atoms: _259  and  _262
REMARK  107  A    between atoms: _262  and  _263
REMARK  108  A    between atoms: _263  and  _264
REMARK  109  A    between atoms: _269  and  _271
REMARK  110  A    between atoms: _271  and  _272
REMARK  111  A    between atoms: _271  and  _274
REMARK  112  A    between atoms: _274  and  _275
REMARK  113  A    between atoms: _277  and  _279
REMARK  114  A    between atoms: _279  and  _280
REMARK  115  A    between atoms: _279  and  _282
REMARK  116  A    between atoms: _282  and  _283
REMARK  117  A    between atoms: _289  and  _291
REMARK  118  A    between atoms: _291  and  _292
REMARK  119  A    between atoms: _291  and  _294
REMARK  120  A    between atoms: _294  and  _295
REMARK  121  A    between atoms: _295  and  _296
REMARK  122  A    between atoms: _296  and  _297
REMARK  123  A    between atoms: _306  and  _308
REMARK  124  A    between atoms: _308  and  _309
REMARK  125  A    between atoms: _308  and  _311
REMARK  126  A    between atoms: _314  and  _316
REMARK  127  A    between atoms: _316  and  _317
REMARK  128  A    between atoms: _316  and  _319
REMARK  129  A    between atoms: _319  and  _320
REMARK  130  A    between atoms: _323  and  _325
REMARK  131  A    between atoms: _325  and  _326
REMARK  132  A    between atoms: _325  and  _328
REMARK  133  A    between atoms: _328  and  _329
REMARK  134  A    between atoms: _332  and  _334
REMARK  135  A    between atoms: _334  and  _335
REMARK  136  A    between atoms: _334  and  _337
REMARK  137  A    between atoms: _337  and  _338
REMARK  138  A    between atoms: _338  and  _339
REMARK  139  A    between atoms: _339  and  _340
REMARK  140  A    between atoms: _349  and  _351
REMARK  141  A    between atoms: _351  and  _352
REMARK  142  A    between atoms: _351  and  _354
REMARK  143  A    between atoms: _354  and  _355
REMARK  144  A    between atoms: _358  and  _360
REMARK  145  A    between atoms: _360  and  _361
REMARK  146  A    between atoms: _360  and  _363
REMARK  147  A    between atoms: _363  and  _364
REMARK  148  A    between atoms: _367  and  _369
REMARK  149  A    between atoms: _369  and  _370
REMARK  150  A    between atoms: _369  and  _372
REMARK  151  A    between atoms: _372  and  _373
REMARK  152  A    between atoms: _378  and  _379
REMARK  153  A    between atoms: _381  and  _383
REMARK  154  A    between atoms: _383  and  _384
REMARK  155  A    between atoms: _383  and  _386
REMARK  156  A    between atoms: _386  and  _387
REMARK  157  A    between atoms: _392  and  _393
REMARK  158  A    between atoms: _395  and  _397
REMARK  159  A    between atoms: _397  and  _398
REMARK  160  A    between atoms: _397  and  _400
REMARK  161  A    between atoms: _400  and  _401
REMARK  162  A    between atoms: _404  and  _406
REMARK  163  A    between atoms: _406  and  _407
REMARK  164  A    between atoms: _406  and  _409
REMARK  165  A    between atoms: _409  and  _410
REMARK  166  A    between atoms: _410  and  _411
REMARK  167  A    between atoms: _416  and  _418
REMARK  168  A    between atoms: _418  and  _419
REMARK  169  A    between atoms: _418  and  _421
REMARK  170  A    between atoms: _424  and  _426
REMARK  171  A    between atoms: _426  and  _427
REMARK  172  A    between atoms: _426  and  _429
REMARK  173  A    between atoms: _429  and  _430
REMARK  174  A    between atoms: _433  and  _435
REMARK  175  A    between atoms: _435  and  _436
REMARK  176  A    between atoms: _435  and  _438
REMARK  177  A    between atoms: _438  and  _439
REMARK  178  A    between atoms: _441  and  _443
REMARK  179  A    between atoms: _443  and  _444
REMARK  180  A    between atoms: _446  and  _448
REMARK  181  A    between atoms: _448  and  _449
REMARK  182  A    between atoms: _448  and  _451
REMARK  183  A    between atoms: _451  and  _452
REMARK  184  A    between atoms: _452  and  _753
REMARK  185  A    between atoms: _453  and  _455
REMARK  186  A    between atoms: _455  and  _456
REMARK  187  A    between atoms: _455  and  _458
REMARK  188  A    between atoms: _458  and  _459
REMARK  189  A    between atoms: _464  and  _465
REMARK  190  A    between atoms: _467  and  _469
REMARK  191  A    between atoms: _469  and  _470
REMARK  192  A    between atoms: _469  and  _472
REMARK  193  A    between atoms: _472  and  _473
REMARK  194  A    between atoms: _473  and  _474
REMARK  195  A    between atoms: _479  and  _481
REMARK  196  A    between atoms: _481  and  _482
REMARK  197  A    between atoms: _481  and  _484
REMARK  198  A    between atoms: _484  and  _485
REMARK  199  A    between atoms: _485  and  _486
REMARK  200  A    between atoms: _491  and  _493
REMARK  201  A    between atoms: _493  and  _494
REMARK  202  A    between atoms: _493  and  _496
REMARK  203  A    between atoms: _496  and  _497
REMARK  204  A    between atoms: _502  and  _503
REMARK  205  A    between atoms: _505  and  _507
REMARK  206  A    between atoms: _507  and  _508
REMARK  207  A    between atoms: _511  and  _513
REMARK  208  A    between atoms: _513  and  _514
REMARK  209  A    between atoms: _513  and  _516
REMARK  210  A    between atoms: _516  and  _517
REMARK  211  A    between atoms: _522  and  _523
REMARK  212  A    between atoms: _525  and  _527
REMARK  213  A    between atoms: _527  and  _528
REMARK  214  A    between atoms: _527  and  _530
REMARK  215  A    between atoms: _530  and  _531
REMARK  216  A    between atoms: _536  and  _537
REMARK  217  A    between atoms: _539  and  _541
REMARK  218  A    between atoms: _541  and  _542
REMARK  219  A    between atoms: _541  and  _544
REMARK  220  A    between atoms: _544  and  _545
REMARK  221  A    between atoms: _548  and  _550
REMARK  222  A    between atoms: _550  and  _551
REMARK  223  A    between atoms: _554  and  _556
REMARK  224  A    between atoms: _556  and  _557
REMARK  225  A    between atoms: _560  and  _562
REMARK  226  A    between atoms: _562  and  _563
REMARK  227  A    between atoms: _562  and  _565
REMARK  228  A    between atoms: _565  and  _566
REMARK  229  A    between atoms: _569  and  _571
REMARK  230  A    between atoms: _571  and  _572
REMARK  231  A    between atoms: _571  and  _574
REMARK  232  A    between atoms: _574  and  _575
REMARK  233  A    between atoms: _578  and  _580
REMARK  234  A    between atoms: _580  and  _581
REMARK  235  A    between atoms: _580  and  _583
REMARK  236  A    between atoms: _583  and  _584
REMARK  237  A    between atoms: _587  and  _589
REMARK  238  A    between atoms: _589  and  _590
REMARK  239  A    between atoms: _589  and  _592
REMARK  240  A    between atoms: _592  and  _593
REMARK  241  A    between atoms: _593  and  _594
REMARK  242  A    between atoms: _594  and  _595
REMARK  243  A    between atoms: _595  and  _596
REMARK  244  A    between atoms: _600  and  _602
REMARK  245  A    between atoms: _602  and  _603
REMARK  246  A    between atoms: _602  and  _605
REMARK  247  A    between atoms: _605  and  _606
REMARK  248  A    between atoms: _611  and  _613
REMARK  249  A    between atoms: _613  and  _614
REMARK  250  A    between atoms: _613  and  _616
REMARK  251  A    between atoms: _616  and  _617
REMARK  252  A    between atoms: _617  and  _618
REMARK  253  A    between atoms: _618  and  _619
REMARK  254  A    between atoms: _619  and  _620
REMARK  255  A    between atoms: _624  and  _626
REMARK  256  A    between atoms: _626  and  _627
REMARK  257  A    between atoms: _626  and  _629
REMARK  258  A    between atoms: _629  and  _630
REMARK  259  A    between atoms: _640  and  _642
REMARK  260  A    between atoms: _642  and  _643
REMARK  261  A    between atoms: _646  and  _648
REMARK  262  A    between atoms: _648  and  _649
REMARK  263  A    between atoms: _648  and  _651
REMARK  264  A    between atoms: _651  and  _652
REMARK  265  A    between atoms: _652  and  _653
REMARK  266  A    between atoms: _656  and  _658
REMARK  267  A    between atoms: _658  and  _659
REMARK  268  A    between atoms: _658  and  _661
REMARK  269  A    between atoms: _661  and  _662
REMARK  270  A    between atoms: _662  and  _663
REMARK  271  A    between atoms: _666  and  _668
REMARK  272  A    between atoms: _668  and  _669
REMARK  273  A    between atoms: _668  and  _671
REMARK  274  A    between atoms: _671  and  _672
REMARK  275  A    between atoms: _672  and  _673
REMARK  276  A    between atoms: _673  and  _674
REMARK  277  A    between atoms: _683  and  _685
REMARK  278  A    between atoms: _685  and  _686
REMARK  279  A    between atoms: _685  and  _688
REMARK  280  A    between atoms: _688  and  _689
REMARK  281  A    between atoms: _692  and  _694
REMARK  282  A    between atoms: _694  and  _695
REMARK  283  A    between atoms: _694  and  _697
REMARK  284  A    between atoms: _697  and  _698
REMARK  285  A    between atoms: _698  and  _699
REMARK  286  A    between atoms: _699  and  _700
REMARK  287  A    between atoms: _709  and  _711
REMARK  288  A    between atoms: _711  and  _712
REMARK  289  A    between atoms: _715  and  _717
REMARK  290  A    between atoms: _717  and  _718
REMARK  291  A    between atoms: _717  and  _720
REMARK  292  A    between atoms: _720  and  _721
REMARK  293  A    between atoms: _726  and  _727
REMARK  294  A    between atoms: _729  and  _731
REMARK  295  A    between atoms: _731  and  _732
REMARK  296  A    between atoms: _731  and  _734
REMARK  297  A    between atoms: _734  and  _735
REMARK  298  A    between atoms: _738  and  _740
REMARK  299  A    between atoms: _740  and  _741
REMARK  300  A    between atoms: _740  and  _743
REMARK  301  A    between atoms: _743  and  _744
REMARK  302  A    between atoms: _747  and  _749
REMARK  303  A    between atoms: _749  and  _750
REMARK  304  A    between atoms: _749  and  _752
REMARK  305  A    between atoms: _752  and  _753
REMARK  306  A    between atoms: _754  and  _756
REMARK  307  A    between atoms: _756  and  _757
REMARK  308  A    between atoms: _756  and  _759
REMARK  309  A    between atoms: _762  and  _764
REMARK  310  A    between atoms: _764  and  _765
REMARK  311  A    between atoms: _764  and  _767
REMARK  312  A    between atoms: _767  and  _768
REMARK  313  A    between atoms: _768  and  _769
REMARK  314  A    between atoms: _772  and  _774
REMARK  315  A    between atoms: _774  and  _775
REMARK  316  A    between atoms: _774  and  _777
REMARK  317  A    between atoms: _777  and  _778
REMARK  318  A    between atoms: _788  and  _790
REMARK  319  A    between atoms: _790  and  _791
REMARK  320  A    between atoms: _790  and  _793
REMARK  321  A    between atoms: _793  and  _794
REMARK  322  A    between atoms: _797  and  _799
REMARK  323  A    between atoms: _799  and  _800
REMARK  324  A    between atoms: _799  and  _802
REMARK  325  A    between atoms: _802  and  _803
REMARK  326  A    between atoms: _808  and  _809
REMARK                            x       y       z     vdW  Elec       q    Type
REMARK                         _______ _______ _______ _____ _____    ______ ____
ROOT
ATOM      1  O   HOH     1      -0.297  -3.943   3.700  0.00  0.00    +0.000 OA
ENDROOT
TORSDOF 0
REMARK  Name = ../refined-set-2016/3p9m/3p9m_pocket.pdb
REMARK  326 active torsions:
REMARK  status: ('A' for Active; 'I' for Inactive)
REMARK    1  A    between atoms: _1  and  _3
REMARK    2  A    between atoms: _3  and  _4
REMARK    3  A    between atoms: _3  and  _6
REMARK    4  A    between atoms: _6  and  _7
REMARK    5  A    between atoms: _10  and  _12
REMARK    6  A    between atoms: _12  and  _13
REMARK    7  A    between atoms: _12  and  _15
REMARK    8  A    between atoms: _15  and  _16
REMARK    9  A    between atoms: _16  and  _17
REMARK   10  A    between atoms: _17  and  _18
REMARK   11  A    between atoms: _27  and  _29
REMARK   12  A    between atoms: _29  and  _30
REMARK   13  A    between atoms: _29  and  _32
REMARK   14  A    between atoms: _32  and  _33
REMARK   15  A    between atoms: _38  and  _39
REMARK   16  A    between atoms: _41  and  _43
REMARK   17  A    between atoms: _43  and  _44
REMARK   18  A    between atoms: _43  and  _46
REMARK   19  A    between atoms: _46  and  _47
REMARK   20  A    between atoms: _53  and  _55
REMARK   21  A    between atoms: _55  and  _56
REMARK   22  A    between atoms: _55  and  _58
REMARK   23  A    between atoms: _61  and  _63
REMARK   24  A    between atoms: _63  and  _64
REMARK   25  A    between atoms: _63  and  _66
REMARK   26  A    between atoms: _66  and  _67
REMARK   27  A    between atoms: _70  and  _72
REMARK   28  A    between atoms: _72  and  _73
REMARK   29  A    between atoms: _72  and  _75
REMARK   30  A    between atoms: _75  and  _76
REMARK   31  A    between atoms: _81  and  _82
REMARK   32  A    between atoms: _84  and  _86
REMARK   33  A    between atoms: _86  and  _87
REMARK   34  A    between atoms: _86  and  _89
REMARK   35  A    between atoms: _89  and  _90
REMARK   36  A    between atoms: _90  and  _91
REMARK   37  A    between atoms: _93  and  _95
REMARK   38  A    between atoms: _95  and  _96
REMARK   39  A    between atoms: _95  and  _98
REMARK   40  A    between atoms: _98  and  _99
REMARK   41  A    between atoms: _99  and  _100
REMARK   42  A    between atoms: _103  and  _105
REMARK   43  A    between atoms: _105  and  _106
REMARK   44  A    between atoms: _105  and  _108
REMARK   45  A    between atoms: _111  and  _113
REMARK   46  A    between atoms: _113  and  _114
REMARK   47  A    between atoms: _116  and  _118
REMARK   48  A    between atoms: _118  and  _119
REMARK   49  A    between atoms: _118  and  _121
REMARK   50  A    between atoms: _121  and  _122
REMARK   51  A    between atoms: _128  and  _130
REMARK   52  A    between atoms: _130  and  _131
REMARK   53  A    between atoms: _130  and  _133
REMARK   54  A    between atoms: _136  and  _138
REMARK   55  A    between atoms: _138  and  _139
REMARK   56  A    between atoms: _138  and  _141
REMARK   57  A    between atoms: _141  and  _142
REMARK   58  A    between atoms: _148  and  _150
REMARK   59  A    between atoms: _150  and  _151
REMARK   60  A    between atoms: _150  and  _153
REMARK   61  A    between atoms: _153  and  _154
REMARK   62  A    between atoms: _159  and  _160
REMARK   63  A    between atoms: _162  and  _164
REMARK   64  A    between atoms: _164  and  _165
REMARK   65  A    between atoms: _164  and  _167
REMARK   66  A    between atoms: _167  and  _168
REMARK   67  A    between atoms: _168  and  _169
REMARK   68  A    between atoms: _171  and  _173
REMARK   69  A    between atoms: _173  and  _174
REMARK   70  A    between atoms: _173  and  _176
REMARK   71  A    between atoms: _176  and  _177
REMARK   72  A    between atoms: _182  and  _183
REMARK   73  A    between atoms: _185  and  _187
REMARK   74  A    between atoms: _187  and  _188
REMARK   75  A    between atoms: _187  and  _190
REMARK   76  A    between atoms: _190  and  _191
REMARK   77  A    between atoms: _191  and  _192
REMARK   78  A    between atoms: _192  and  _193
REMARK   79  A    between atoms: _202  and  _204
REMARK   80  A    between atoms: _204  and  _205
REMARK   81  A    between atoms: _204  and  _207
REMARK   82  A    between atoms: _207  and  _208
REMARK   83  A    between atoms: _208  and  _209
REMARK   84  A    between atoms: _212  and  _214
REMARK   85  A    between atoms: _214  and  _215
REMARK   86  A    between atoms: _214  and  _217
REMARK   87  A    between atoms: _217  and  _218
REMARK   88  A    between atoms: _218  and  _219
REMARK   89  A    between atoms: _219  and  _220
REMARK   90  A    between atoms: _220  and  _221
REMARK   91  A    between atoms: _225  and  _227
REMARK   92  A    between atoms: _227  and  _228
REMARK   93  A    between atoms: _231  and  _233
REMARK   94  A    between atoms: _233  and  _234
REMARK   95  A    between atoms: _236  and  _238
REMARK   96  A    between atoms: _238  and  _239
REMARK   97  A    between atoms: _238  and  _241
REMARK   98  A    between atoms: _241  and  _242
REMARK   99  A    between atoms: _247  and  _249
REMARK  100  A    between atoms: _249  and  _250
REMARK  101  A    between atoms: _249  and  _252
REMARK  102  A    between atoms: _252  and  _253
REMARK  103  A    between atoms: _253  and  _254
REMARK  104  A    between atoms: _257  and  _259
REMARK  105  A    between atoms: _259  and  _260
REMARK  106  A    between atoms: _259  and  _262
REMARK  107  A    between atoms: _262  and  _263
REMARK  108  A    between atoms: _263  and  _264
REMARK  109  A    between atoms: _269  and  _271
REMARK  110  A    between atoms: _271  and  _272
REMARK  111  A    between atoms: _271  and  _274
REMARK  112  A    between atoms: _274  and  _275
REMARK  113  A    between atoms: _277  and  _279
REMARK  114  A    between atoms: _279  and  _280
REMARK  115  A    between atoms: _279  and  _282
REMARK  116  A    between atoms: _282  and  _283
REMARK  117  A    between atoms: _289  and  _291
REMARK  118  A    between atoms: _291  and  _292
REMARK  119  A    between atoms: _291  and  _294
REMARK  120  A    between atoms: _294  and  _295
REMARK  121  A    between atoms: _295  and  _296
REMARK  122  A    between atoms: _296  and  _297
REMARK  123  A    between atoms: _306  and  _308
REMARK  124  A    between atoms: _308  and  _309
REMARK  125  A    between atoms: _308  and  _311
REMARK  126  A    between atoms: _314  and  _316
REMARK  127  A    between atoms: _316  and  _317
REMARK  128  A    between atoms: _316  and  _319
REMARK  129  A    between atoms: _319  and  _320
REMARK  130  A    between atoms: _323  and  _325
REMARK  131  A    between atoms: _325  and  _326
REMARK  132  A    between atoms: _325  and  _328
REMARK  133  A    between atoms: _328  and  _329
REMARK  134  A    between atoms: _332  and  _334
REMARK  135  A    between atoms: _334  and  _335
REMARK  136  A    between atoms: _334  and  _337
REMARK  137  A    between atoms: _337  and  _338
REMARK  138  A    between atoms: _338  and  _339
REMARK  139  A    between atoms: _339  and  _340
REMARK  140  A    between atoms: _349  and  _351
REMARK  141  A    between atoms: _351  and  _352
REMARK  142  A    between atoms: _351  and  _354
REMARK  143  A    between atoms: _354  and  _355
REMARK  144  A    between atoms: _358  and  _360
REMARK  145  A    between atoms: _360  and  _361
REMARK  146  A    between atoms: _360  and  _363
REMARK  147  A    between atoms: _363  and  _364
REMARK  148  A    between atoms: _367  and  _369
REMARK  149  A    between atoms: _369  and  _370
REMARK  150  A    between atoms: _369  and  _372
REMARK  151  A    between atoms: _372  and  _373
REMARK  152  A    between atoms: _378  and  _379
REMARK  153  A    between atoms: _381  and  _383
REMARK  154  A    between atoms: _383  and  _384
REMARK  155  A    between atoms: _383  and  _386
REMARK  156  A    between atoms: _386  and  _387
REMARK  157  A    between atoms: _392  and  _393
REMARK  158  A    between atoms: _395  and  _397
REMARK  159  A    between atoms: _397  and  _398
REMARK  160  A    between atoms: _397  and  _400
REMARK  161  A    between atoms: _400  and  _401
REMARK  162  A    between atoms: _404  and  _406
REMARK  163  A    between atoms: _406  and  _407
REMARK  164  A    between atoms: _406  and  _409
REMARK  165  A    between atoms: _409  and  _410
REMARK  166  A    between atoms: _410  and  _411
REMARK  167  A    between atoms: _416  and  _418
REMARK  168  A    between atoms: _418  and  _419
REMARK  169  A    between atoms: _418  and  _421
REMARK  170  A    between atoms: _424  and  _426
REMARK  171  A    between atoms: _426  and  _427
REMARK  172  A    between atoms: _426  and  _429
REMARK  173  A    between atoms: _429  and  _430
REMARK  174  A    between atoms: _433  and  _435
REMARK  175  A    between atoms: _435  and  _436
REMARK  176  A    between atoms: _435  and  _438
REMARK  177  A    between atoms: _438  and  _439
REMARK  178  A    between atoms: _441  and  _443
REMARK  179  A    between atoms: _443  and  _444
REMARK  180  A    between atoms: _446  and  _448
REMARK  181  A    between atoms: _448  and  _449
REMARK  182  A    between atoms: _448  and  _451
REMARK  183  A    between atoms: _451  and  _452
REMARK  184  A    between atoms: _452  and  _753
REMARK  185  A    between atoms: _453  and  _455
REMARK  186  A    between atoms: _455  and  _456
REMARK  187  A    between atoms: _455  and  _458
REMARK  188  A    between atoms: _458  and  _459
REMARK  189  A    between atoms: _464  and  _465
REMARK  190  A    between atoms: _467  and  _469
REMARK  191  A    between atoms: _469  and  _470
REMARK  192  A    between atoms: _469  and  _472
REMARK  193  A    between atoms: _472  and  _473
REMARK  194  A    between atoms: _473  and  _474
REMARK  195  A    between atoms: _479  and  _481
REMARK  196  A    between atoms: _481  and  _482
REMARK  197  A    between atoms: _481  and  _484
REMARK  198  A    between atoms: _484  and  _485
REMARK  199  A    between atoms: _485  and  _486
REMARK  200  A    between atoms: _491  and  _493
REMARK  201  A    between atoms: _493  and  _494
REMARK  202  A    between atoms: _493  and  _496
REMARK  203  A    between atoms: _496  and  _497
REMARK  204  A    between atoms: _502  and  _503
REMARK  205  A    between atoms: _505  and  _507
REMARK  206  A    between atoms: _507  and  _508
REMARK  207  A    between atoms: _511  and  _513
REMARK  208  A    between atoms: _513  and  _514
REMARK  209  A    between atoms: _513  and  _516
REMARK  210  A    between atoms: _516  and  _517
REMARK  211  A    between atoms: _522  and  _523
REMARK  212  A    between atoms: _525  and  _527
REMARK  213  A    between atoms: _527  and  _528
REMARK  214  A    between atoms: _527  and  _530
REMARK  215  A    between atoms: _530  and  _531
REMARK  216  A    between atoms: _536  and  _537
REMARK  217  A    between atoms: _539  and  _541
REMARK  218  A    between atoms: _541  and  _542
REMARK  219  A    between atoms: _541  and  _544
REMARK  220  A    between atoms: _544  and  _545
REMARK  221  A    between atoms: _548  and  _550
REMARK  222  A    between atoms: _550  and  _551
REMARK  223  A    between atoms: _554  and  _556
REMARK  224  A    between atoms: _556  and  _557
REMARK  225  A    between atoms: _560  and  _562
REMARK  226  A    between atoms: _562  and  _563
REMARK  227  A    between atoms: _562  and  _565
REMARK  228  A    between atoms: _565  and  _566
REMARK  229  A    between atoms: _569  and  _571
REMARK  230  A    between atoms: _571  and  _572
REMARK  231  A    between atoms: _571  and  _574
REMARK  232  A    between atoms: _574  and  _575
REMARK  233  A    between atoms: _578  and  _580
REMARK  234  A    between atoms: _580  and  _581
REMARK  235  A    between atoms: _580  and  _583
REMARK  236  A    between atoms: _583  and  _584
REMARK  237  A    between atoms: _587  and  _589
REMARK  238  A    between atoms: _589  and  _590
REMARK  239  A    between atoms: _589  and  _592
REMARK  240  A    between atoms: _592  and  _593
REMARK  241  A    between atoms: _593  and  _594
REMARK  242  A    between atoms: _594  and  _595
REMARK  243  A    between atoms: _595  and  _596
REMARK  244  A    between atoms: _600  and  _602
REMARK  245  A    between atoms: _602  and  _603
REMARK  246  A    between atoms: _602  and  _605
REMARK  247  A    between atoms: _605  and  _606
REMARK  248  A    between atoms: _611  and  _613
REMARK  249  A    between atoms: _613  and  _614
REMARK  250  A    between atoms: _613  and  _616
REMARK  251  A    between atoms: _616  and  _617
REMARK  252  A    between atoms: _617  and  _618
REMARK  253  A    between atoms: _618  and  _619
REMARK  254  A    between atoms: _619  and  _620
REMARK  255  A    between atoms: _624  and  _626
REMARK  256  A    between atoms: _626  and  _627
REMARK  257  A    between atoms: _626  and  _629
REMARK  258  A    between atoms: _629  and  _630
REMARK  259  A    between atoms: _640  and  _642
REMARK  260  A    between atoms: _642  and  _643
REMARK  261  A    between atoms: _646  and  _648
REMARK  262  A    between atoms: _648  and  _649
REMARK  263  A    between atoms: _648  and  _651
REMARK  264  A    between atoms: _651  and  _652
REMARK  265  A    between atoms: _652  and  _653
REMARK  266  A    between atoms: _656  and  _658
REMARK  267  A    between atoms: _658  and  _659
REMARK  268  A    between atoms: _658  and  _661
REMARK  269  A    between atoms: _661  and  _662
REMARK  270  A    between atoms: _662  and  _663
REMARK  271  A    between atoms: _666  and  _668
REMARK  272  A    between atoms: _668  and  _669
REMARK  273  A    between atoms: _668  and  _671
REMARK  274  A    between atoms: _671  and  _672
REMARK  275  A    between atoms: _672  and  _673
REMARK  276  A    between atoms: _673  and  _674
REMARK  277  A    between atoms: _683  and  _685
REMARK  278  A    between atoms: _685  and  _686
REMARK  279  A    between atoms: _685  and  _688
REMARK  280  A    between atoms: _688  and  _689
REMARK  281  A    between atoms: _692  and  _694
REMARK  282  A    between atoms: _694  and  _695
REMARK  283  A    between atoms: _694  and  _697
REMARK  284  A    between atoms: _697  and  _698
REMARK  285  A    between atoms: _698  and  _699
REMARK  286  A    between atoms: _699  and  _700
REMARK  287  A    between atoms: _709  and  _711
REMARK  288  A    between atoms: _711  and  _712
REMARK  289  A    between atoms: _715  and  _717
REMARK  290  A    between atoms: _717  and  _718
REMARK  291  A    between atoms: _717  and  _720
REMARK  292  A    between atoms: _720  and  _721
REMARK  293  A    between atoms: _726  and  _727
REMARK  294  A    between atoms: _729  and  _731
REMARK  295  A    between atoms: _731  and  _732
REMARK  296  A    between atoms: _731  and  _734
REMARK  297  A    between atoms: _734  and  _735
REMARK  298  A    between atoms: _738  and  _740
REMARK  299  A    between atoms: _740  and  _741
REMARK  300  A    between atoms: _740  and  _743
REMARK  301  A    between atoms: _743  and  _744
REMARK  302  A    between atoms: _747  and  _749
REMARK  303  A    between atoms: _749  and  _750
REMARK  304  A    between atoms: _749  and  _752
REMARK  305  A    between atoms: _752  and  _753
REMARK  306  A    between atoms: _754  and  _756
REMARK  307  A    between atoms: _756  and  _757
REMARK  308  A    between atoms: _756  and  _759
REMARK  309  A    between atoms: _762  and  _764
REMARK  310  A    between atoms: _764  and  _765
REMARK  311  A    between atoms: _764  and  _767
REMARK  312  A    between atoms: _767  and  _768
REMARK  313  A    between atoms: _768  and  _769
REMARK  314  A    between atoms: _772  and  _774
REMARK  315  A    between atoms: _774  and  _775
REMARK  316  A    between atoms: _774  and  _777
REMARK  317  A    between atoms: _777  and  _778
REMARK  318  A    between atoms: _788  and  _790
REMARK  319  A    between atoms: _790  and  _791
REMARK  320  A    between atoms: _790  and  _793
REMARK  321  A    between atoms: _793  and  _794
REMARK  322  A    between atoms: _797  and  _799
REMARK  323  A    between atoms: _799  and  _800
REMARK  324  A    between atoms: _799  and  _802
REMARK  325  A    between atoms: _802  and  _803
REMARK  326  A    between atoms: _808  and  _809
REMARK                            x       y       z     vdW  Elec       q    Type
REMARK                         _______ _______ _______ _____ _____    ______ ____
ROOT
ATOM      1  O   HOH     1      -7.066  22.905 -15.720  0.00  0.00    +0.000 OA
ENDROOT
TORSDOF 0
REMARK  Name = ../refined-set-2016/3p9m/3p9m_pocket.pdb
REMARK  326 active torsions:
REMARK  status: ('A' for Active; 'I' for Inactive)
REMARK    1  A    between atoms: _1  and  _3
REMARK    2  A    between atoms: _3  and  _4
REMARK    3  A    between atoms: _3  and  _6
REMARK    4  A    between atoms: _6  and  _7
REMARK    5  A    between atoms: _10  and  _12
REMARK    6  A    between atoms: _12  and  _13
REMARK    7  A    between atoms: _12  and  _15
REMARK    8  A    between atoms: _15  and  _16
REMARK    9  A    between atoms: _16  and  _17
REMARK   10  A    between atoms: _17  and  _18
REMARK   11  A    between atoms: _27  and  _29
REMARK   12  A    between atoms: _29  and  _30
REMARK   13  A    between atoms: _29  and  _32
REMARK   14  A    between atoms: _32  and  _33
REMARK   15  A    between atoms: _38  and  _39
REMARK   16  A    between atoms: _41  and  _43
REMARK   17  A    between atoms: _43  and  _44
REMARK   18  A    between atoms: _43  and  _46
REMARK   19  A    between atoms: _46  and  _47
REMARK   20  A    between atoms: _53  and  _55
REMARK   21  A    between atoms: _55  and  _56
REMARK   22  A    between atoms: _55  and  _58
REMARK   23  A    between atoms: _61  and  _63
REMARK   24  A    between atoms: _63  and  _64
REMARK   25  A    between atoms: _63  and  _66
REMARK   26  A    between atoms: _66  and  _67
REMARK   27  A    between atoms: _70  and  _72
REMARK   28  A    between atoms: _72  and  _73
REMARK   29  A    between atoms: _72  and  _75
REMARK   30  A    between atoms: _75  and  _76
REMARK   31  A    between atoms: _81  and  _82
REMARK   32  A    between atoms: _84  and  _86
REMARK   33  A    between atoms: _86  and  _87
REMARK   34  A    between atoms: _86  and  _89
REMARK   35  A    between atoms: _89  and  _90
REMARK   36  A    between atoms: _90  and  _91
REMARK   37  A    between atoms: _93  and  _95
REMARK   38  A    between atoms: _95  and  _96
REMARK   39  A    between atoms: _95  and  _98
REMARK   40  A    between atoms: _98  and  _99
REMARK   41  A    between atoms: _99  and  _100
REMARK   42  A    between atoms: _103  and  _105
REMARK   43  A    between atoms: _105  and  _106
REMARK   44  A    between atoms: _105  and  _108
REMARK   45  A    between atoms: _111  and  _113
REMARK   46  A    between atoms: _113  and  _114
REMARK   47  A    between atoms: _116  and  _118
REMARK   48  A    between atoms: _118  and  _119
REMARK   49  A    between atoms: _118  and  _121
REMARK   50  A    between atoms: _121  and  _122
REMARK   51  A    between atoms: _128  and  _130
REMARK   52  A    between atoms: _130  and  _131
REMARK   53  A    between atoms: _130  and  _133
REMARK   54  A    between atoms: _136  and  _138
REMARK   55  A    between atoms: _138  and  _139
REMARK   56  A    between atoms: _138  and  _141
REMARK   57  A    between atoms: _141  and  _142
REMARK   58  A    between atoms: _148  and  _150
REMARK   59  A    between atoms: _150  and  _151
REMARK   60  A    between atoms: _150  and  _153
REMARK   61  A    between atoms: _153  and  _154
REMARK   62  A    between atoms: _159  and  _160
REMARK   63  A    between atoms: _162  and  _164
REMARK   64  A    between atoms: _164  and  _165
REMARK   65  A    between atoms: _164  and  _167
REMARK   66  A    between atoms: _167  and  _168
REMARK   67  A    between atoms: _168  and  _169
REMARK   68  A    between atoms: _171  and  _173
REMARK   69  A    between atoms: _173  and  _174
REMARK   70  A    between atoms: _173  and  _176
REMARK   71  A    between atoms: _176  and  _177
REMARK   72  A    between atoms: _182  and  _183
REMARK   73  A    between atoms: _185  and  _187
REMARK   74  A    between atoms: _187  and  _188
REMARK   75  A    between atoms: _187  and  _190
REMARK   76  A    between atoms: _190  and  _191
REMARK   77  A    between atoms: _191  and  _192
REMARK   78  A    between atoms: _192  and  _193
REMARK   79  A    between atoms: _202  and  _204
REMARK   80  A    between atoms: _204  and  _205
REMARK   81  A    between atoms: _204  and  _207
REMARK   82  A    between atoms: _207  and  _208
REMARK   83  A    between atoms: _208  and  _209
REMARK   84  A    between atoms: _212  and  _214
REMARK   85  A    between atoms: _214  and  _215
REMARK   86  A    between atoms: _214  and  _217
REMARK   87  A    between atoms: _217  and  _218
REMARK   88  A    between atoms: _218  and  _219
REMARK   89  A    between atoms: _219  and  _220
REMARK   90  A    between atoms: _220  and  _221
REMARK   91  A    between atoms: _225  and  _227
REMARK   92  A    between atoms: _227  and  _228
REMARK   93  A    between atoms: _231  and  _233
REMARK   94  A    between atoms: _233  and  _234
REMARK   95  A    between atoms: _236  and  _238
REMARK   96  A    between atoms: _238  and  _239
REMARK   97  A    between atoms: _238  and  _241
REMARK   98  A    between atoms: _241  and  _242
REMARK   99  A    between atoms: _247  and  _249
REMARK  100  A    between atoms: _249  and  _250
REMARK  101  A    between atoms: _249  and  _252
REMARK  102  A    between atoms: _252  and  _253
REMARK  103  A    between atoms: _253  and  _254
REMARK  104  A    between atoms: _257  and  _259
REMARK  105  A    between atoms: _259  and  _260
REMARK  106  A    between atoms: _259  and  _262
REMARK  107  A    between atoms: _262  and  _263
REMARK  108  A    between atoms: _263  and  _264
REMARK  109  A    between atoms: _269  and  _271
REMARK  110  A    between atoms: _271  and  _272
REMARK  111  A    between atoms: _271  and  _274
REMARK  112  A    between atoms: _274  and  _275
REMARK  113  A    between atoms: _277  and  _279
REMARK  114  A    between atoms: _279  and  _280
REMARK  115  A    between atoms: _279  and  _282
REMARK  116  A    between atoms: _282  and  _283
REMARK  117  A    between atoms: _289  and  _291
REMARK  118  A    between atoms: _291  and  _292
REMARK  119  A    between atoms: _291  and  _294
REMARK  120  A    between atoms: _294  and  _295
REMARK  121  A    between atoms: _295  and  _296
REMARK  122  A    between atoms: _296  and  _297
REMARK  123  A    between atoms: _306  and  _308
REMARK  124  A    between atoms: _308  and  _309
REMARK  125  A    between atoms: _308  and  _311
REMARK  126  A    between atoms: _314  and  _316
REMARK  127  A    between atoms: _316  and  _317
REMARK  128  A    between atoms: _316  and  _319
REMARK  129  A    between atoms: _319  and  _320
REMARK  130  A    between atoms: _323  and  _325
REMARK  131  A    between atoms: _325  and  _326
REMARK  132  A    between atoms: _325  and  _328
REMARK  133  A    between atoms: _328  and  _329
REMARK  134  A    between atoms: _332  and  _334
REMARK  135  A    between atoms: _334  and  _335
REMARK  136  A    between atoms: _334  and  _337
REMARK  137  A    between atoms: _337  and  _338
REMARK  138  A    between atoms: _338  and  _339
REMARK  139  A    between atoms: _339  and  _340
REMARK  140  A    between atoms: _349  and  _351
REMARK  141  A    between atoms: _351  and  _352
REMARK  142  A    between atoms: _351  and  _354
REMARK  143  A    between atoms: _354  and  _355
REMARK  144  A    between atoms: _358  and  _360
REMARK  145  A    between atoms: _360  and  _361
REMARK  146  A    between atoms: _360  and  _363
REMARK  147  A    between atoms: _363  and  _364
REMARK  148  A    between atoms: _367  and  _369
REMARK  149  A    between atoms: _369  and  _370
REMARK  150  A    between atoms: _369  and  _372
REMARK  151  A    between atoms: _372  and  _373
REMARK  152  A    between atoms: _378  and  _379
REMARK  153  A    between atoms: _381  and  _383
REMARK  154  A    between atoms: _383  and  _384
REMARK  155  A    between atoms: _383  and  _386
REMARK  156  A    between atoms: _386  and  _387
REMARK  157  A    between atoms: _392  and  _393
REMARK  158  A    between atoms: _395  and  _397
REMARK  159  A    between atoms: _397  and  _398
REMARK  160  A    between atoms: _397  and  _400
REMARK  161  A    between atoms: _400  and  _401
REMARK  162  A    between atoms: _404  and  _406
REMARK  163  A    between atoms: _406  and  _407
REMARK  164  A    between atoms: _406  and  _409
REMARK  165  A    between atoms: _409  and  _410
REMARK  166  A    between atoms: _410  and  _411
REMARK  167  A    between atoms: _416  and  _418
REMARK  168  A    between atoms: _418  and  _419
REMARK  169  A    between atoms: _418  and  _421
REMARK  170  A    between atoms: _424  and  _426
REMARK  171  A    between atoms: _426  and  _427
REMARK  172  A    between atoms: _426  and  _429
REMARK  173  A    between atoms: _429  and  _430
REMARK  174  A    between atoms: _433  and  _435
REMARK  175  A    between atoms: _435  and  _436
REMARK  176  A    between atoms: _435  and  _438
REMARK  177  A    between atoms: _438  and  _439
REMARK  178  A    between atoms: _441  and  _443
REMARK  179  A    between atoms: _443  and  _444
REMARK  180  A    between atoms: _446  and  _448
REMARK  181  A    between atoms: _448  and  _449
REMARK  182  A    between atoms: _448  and  _451
REMARK  183  A    between atoms: _451  and  _452
REMARK  184  A    between atoms: _452  and  _753
REMARK  185  A    between atoms: _453  and  _455
REMARK  186  A    between atoms: _455  and  _456
REMARK  187  A    between atoms: _455  and  _458
REMARK  188  A    between atoms: _458  and  _459
REMARK  189  A    between atoms: _464  and  _465
REMARK  190  A    between atoms: _467  and  _469
REMARK  191  A    between atoms: _469  and  _470
REMARK  192  A    between atoms: _469  and  _472
REMARK  193  A    between atoms: _472  and  _473
REMARK  194  A    between atoms: _473  and  _474
REMARK  195  A    between atoms: _479  and  _481
REMARK  196  A    between atoms: _481  and  _482
REMARK  197  A    between atoms: _481  and  _484
REMARK  198  A    between atoms: _484  and  _485
REMARK  199  A    between atoms: _485  and  _486
REMARK  200  A    between atoms: _491  and  _493
REMARK  201  A    between atoms: _493  and  _494
REMARK  202  A    between atoms: _493  and  _496
REMARK  203  A    between atoms: _496  and  _497
REMARK  204  A    between atoms: _502  and  _503
REMARK  205  A    between atoms: _505  and  _507
REMARK  206  A    between atoms: _507  and  _508
REMARK  207  A    between atoms: _511  and  _513
REMARK  208  A    between atoms: _513  and  _514
REMARK  209  A    between atoms: _513  and  _516
REMARK  210  A    between atoms: _516  and  _517
REMARK  211  A    between atoms: _522  and  _523
REMARK  212  A    between atoms: _525  and  _527
REMARK  213  A    between atoms: _527  and  _528
REMARK  214  A    between atoms: _527  and  _530
REMARK  215  A    between atoms: _530  and  _531
REMARK  216  A    between atoms: _536  and  _537
REMARK  217  A    between atoms: _539  and  _541
REMARK  218  A    between atoms: _541  and  _542
REMARK  219  A    between atoms: _541  and  _544
REMARK  220  A    between atoms: _544  and  _545
REMARK  221  A    between atoms: _548  and  _550
REMARK  222  A    between atoms: _550  and  _551
REMARK  223  A    between atoms: _554  and  _556
REMARK  224  A    between atoms: _556  and  _557
REMARK  225  A    between atoms: _560  and  _562
REMARK  226  A    between atoms: _562  and  _563
REMARK  227  A    between atoms: _562  and  _565
REMARK  228  A    between atoms: _565  and  _566
REMARK  229  A    between atoms: _569  and  _571
REMARK  230  A    between atoms: _571  and  _572
REMARK  231  A    between atoms: _571  and  _574
REMARK  232  A    between atoms: _574  and  _575
REMARK  233  A    between atoms: _578  and  _580
REMARK  234  A    between atoms: _580  and  _581
REMARK  235  A    between atoms: _580  and  _583
REMARK  236  A    between atoms: _583  and  _584
REMARK  237  A    between atoms: _587  and  _589
REMARK  238  A    between atoms: _589  and  _590
REMARK  239  A    between atoms: _589  and  _592
REMARK  240  A    between atoms: _592  and  _593
REMARK  241  A    between atoms: _593  and  _594
REMARK  242  A    between atoms: _594  and  _595
REMARK  243  A    between atoms: _595  and  _596
REMARK  244  A    between atoms: _600  and  _602
REMARK  245  A    between atoms: _602  and  _603
REMARK  246  A    between atoms: _602  and  _605
REMARK  247  A    between atoms: _605  and  _606
REMARK  248  A    between atoms: _611  and  _613
REMARK  249  A    between atoms: _613  and  _614
REMARK  250  A    between atoms: _613  and  _616
REMARK  251  A    between atoms: _616  and  _617
REMARK  252  A    between atoms: _617  and  _618
REMARK  253  A    between atoms: _618  and  _619
REMARK  254  A    between atoms: _619  and  _620
REMARK  255  A    between atoms: _624  and  _626
REMARK  256  A    between atoms: _626  and  _627
REMARK  257  A    between atoms: _626  and  _629
REMARK  258  A    between atoms: _629  and  _630
REMARK  259  A    between atoms: _640  and  _642
REMARK  260  A    between atoms: _642  and  _643
REMARK  261  A    between atoms: _646  and  _648
REMARK  262  A    between atoms: _648  and  _649
REMARK  263  A    between atoms: _648  and  _651
REMARK  264  A    between atoms: _651  and  _652
REMARK  265  A    between atoms: _652  and  _653
REMARK  266  A    between atoms: _656  and  _658
REMARK  267  A    between atoms: _658  and  _659
REMARK  268  A    between atoms: _658  and  _661
REMARK  269  A    between atoms: _661  and  _662
REMARK  270  A    between atoms: _662  and  _663
REMARK  271  A    between atoms: _666  and  _668
REMARK  272  A    between atoms: _668  and  _669
REMARK  273  A    between atoms: _668  and  _671
REMARK  274  A    between atoms: _671  and  _672
REMARK  275  A    between atoms: _672  and  _673
REMARK  276  A    between atoms: _673  and  _674
REMARK  277  A    between atoms: _683  and  _685
REMARK  278  A    between atoms: _685  and  _686
REMARK  279  A    between atoms: _685  and  _688
REMARK  280  A    between atoms: _688  and  _689
REMARK  281  A    between atoms: _692  and  _694
REMARK  282  A    between atoms: _694  and  _695
REMARK  283  A    between atoms: _694  and  _697
REMARK  284  A    between atoms: _697  and  _698
REMARK  285  A    between atoms: _698  and  _699
REMARK  286  A    between atoms: _699  and  _700
REMARK  287  A    between atoms: _709  and  _711
REMARK  288  A    between atoms: _711  and  _712
REMARK  289  A    between atoms: _715  and  _717
REMARK  290  A    between atoms: _717  and  _718
REMARK  291  A    between atoms: _717  and  _720
REMARK  292  A    between atoms: _720  and  _721
REMARK  293  A    between atoms: _726  and  _727
REMARK  294  A    between atoms: _729  and  _731
REMARK  295  A    between atoms: _731  and  _732
REMARK  296  A    between atoms: _731  and  _734
REMARK  297  A    between atoms: _734  and  _735
REMARK  298  A    between atoms: _738  and  _740
REMARK  299  A    between atoms: _740  and  _741
REMARK  300  A    between atoms: _740  and  _743
REMARK  301  A    between atoms: _743  and  _744
REMARK  302  A    between atoms: _747  and  _749
REMARK  303  A    between atoms: _749  and  _750
REMARK  304  A    between atoms: _749  and  _752
REMARK  305  A    between atoms: _752  and  _753
REMARK  306  A    between atoms: _754  and  _756
REMARK  307  A    between atoms: _756  and  _757
REMARK  308  A    between atoms: _756  and  _759
REMARK  309  A    between atoms: _762  and  _764
REMARK  310  A    between atoms: _764  and  _765
REMARK  311  A    between atoms: _764  and  _767
REMARK  312  A    between atoms: _767  and  _768
REMARK  313  A    between atoms: _768  and  _769
REMARK  314  A    between atoms: _772  and  _774
REMARK  315  A    between atoms: _774  and  _775
REMARK  316  A    between atoms: _774  and  _777
REMARK  317  A    between atoms: _777  and  _778
REMARK  318  A    between atoms: _788  and  _790
REMARK  319  A    between atoms: _790  and  _791
REMARK  320  A    between atoms: _790  and  _793
REMARK  321  A    between atoms: _793  and  _794
REMARK  322  A    between atoms: _797  and  _799
REMARK  323  A    between atoms: _799  and  _800
REMARK  324  A    between atoms: _799  and  _802
REMARK  325  A    between atoms: _802  and  _803
REMARK  326  A    between atoms: _808  and  _809
REMARK                            x       y       z     vdW  Elec       q    Type
REMARK                         _______ _______ _______ _____ _____    ______ ____
ROOT
ATOM      1  O   HOH     1      -2.388   6.066   2.396  0.00  0.00    +0.000 OA
ENDROOT
TORSDOF 0
REMARK  Name = ../refined-set-2016/3p9m/3p9m_pocket.pdb
REMARK  326 active torsions:
REMARK  status: ('A' for Active; 'I' for Inactive)
REMARK    1  A    between atoms: _1  and  _3
REMARK    2  A    between atoms: _3  and  _4
REMARK    3  A    between atoms: _3  and  _6
REMARK    4  A    between atoms: _6  and  _7
REMARK    5  A    between atoms: _10  and  _12
REMARK    6  A    between atoms: _12  and  _13
REMARK    7  A    between atoms: _12  and  _15
REMARK    8  A    between atoms: _15  and  _16
REMARK    9  A    between atoms: _16  and  _17
REMARK   10  A    between atoms: _17  and  _18
REMARK   11  A    between atoms: _27  and  _29
REMARK   12  A    between atoms: _29  and  _30
REMARK   13  A    between atoms: _29  and  _32
REMARK   14  A    between atoms: _32  and  _33
REMARK   15  A    between atoms: _38  and  _39
REMARK   16  A    between atoms: _41  and  _43
REMARK   17  A    between atoms: _43  and  _44
REMARK   18  A    between atoms: _43  and  _46
REMARK   19  A    between atoms: _46  and  _47
REMARK   20  A    between atoms: _53  and  _55
REMARK   21  A    between atoms: _55  and  _56
REMARK   22  A    between atoms: _55  and  _58
REMARK   23  A    between atoms: _61  and  _63
REMARK   24  A    between atoms: _63  and  _64
REMARK   25  A    between atoms: _63  and  _66
REMARK   26  A    between atoms: _66  and  _67
REMARK   27  A    between atoms: _70  and  _72
REMARK   28  A    between atoms: _72  and  _73
REMARK   29  A    between atoms: _72  and  _75
REMARK   30  A    between atoms: _75  and  _76
REMARK   31  A    between atoms: _81  and  _82
REMARK   32  A    between atoms: _84  and  _86
REMARK   33  A    between atoms: _86  and  _87
REMARK   34  A    between atoms: _86  and  _89
REMARK   35  A    between atoms: _89  and  _90
REMARK   36  A    between atoms: _90  and  _91
REMARK   37  A    between atoms: _93  and  _95
REMARK   38  A    between atoms: _95  and  _96
REMARK   39  A    between atoms: _95  and  _98
REMARK   40  A    between atoms: _98  and  _99
REMARK   41  A    between atoms: _99  and  _100
REMARK   42  A    between atoms: _103  and  _105
REMARK   43  A    between atoms: _105  and  _106
REMARK   44  A    between atoms: _105  and  _108
REMARK   45  A    between atoms: _111  and  _113
REMARK   46  A    between atoms: _113  and  _114
REMARK   47  A    between atoms: _116  and  _118
REMARK   48  A    between atoms: _118  and  _119
REMARK   49  A    between atoms: _118  and  _121
REMARK   50  A    between atoms: _121  and  _122
REMARK   51  A    between atoms: _128  and  _130
REMARK   52  A    between atoms: _130  and  _131
REMARK   53  A    between atoms: _130  and  _133
REMARK   54  A    between atoms: _136  and  _138
REMARK   55  A    between atoms: _138  and  _139
REMARK   56  A    between atoms: _138  and  _141
REMARK   57  A    between atoms: _141  and  _142
REMARK   58  A    between atoms: _148  and  _150
REMARK   59  A    between atoms: _150  and  _151
REMARK   60  A    between atoms: _150  and  _153
REMARK   61  A    between atoms: _153  and  _154
REMARK   62  A    between atoms: _159  and  _160
REMARK   63  A    between atoms: _162  and  _164
REMARK   64  A    between atoms: _164  and  _165
REMARK   65  A    between atoms: _164  and  _167
REMARK   66  A    between atoms: _167  and  _168
REMARK   67  A    between atoms: _168  and  _169
REMARK   68  A    between atoms: _171  and  _173
REMARK   69  A    between atoms: _173  and  _174
REMARK   70  A    between atoms: _173  and  _176
REMARK   71  A    between atoms: _176  and  _177
REMARK   72  A    between atoms: _182  and  _183
REMARK   73  A    between atoms: _185  and  _187
REMARK   74  A    between atoms: _187  and  _188
REMARK   75  A    between atoms: _187  and  _190
REMARK   76  A    between atoms: _190  and  _191
REMARK   77  A    between atoms: _191  and  _192
REMARK   78  A    between atoms: _192  and  _193
REMARK   79  A    between atoms: _202  and  _204
REMARK   80  A    between atoms: _204  and  _205
REMARK   81  A    between atoms: _204  and  _207
REMARK   82  A    between atoms: _207  and  _208
REMARK   83  A    between atoms: _208  and  _209
REMARK   84  A    between atoms: _212  and  _214
REMARK   85  A    between atoms: _214  and  _215
REMARK   86  A    between atoms: _214  and  _217
REMARK   87  A    between atoms: _217  and  _218
REMARK   88  A    between atoms: _218  and  _219
REMARK   89  A    between atoms: _219  and  _220
REMARK   90  A    between atoms: _220  and  _221
REMARK   91  A    between atoms: _225  and  _227
REMARK   92  A    between atoms: _227  and  _228
REMARK   93  A    between atoms: _231  and  _233
REMARK   94  A    between atoms: _233  and  _234
REMARK   95  A    between atoms: _236  and  _238
REMARK   96  A    between atoms: _238  and  _239
REMARK   97  A    between atoms: _238  and  _241
REMARK   98  A    between atoms: _241  and  _242
REMARK   99  A    between atoms: _247  and  _249
REMARK  100  A    between atoms: _249  and  _250
REMARK  101  A    between atoms: _249  and  _252
REMARK  102  A    between atoms: _252  and  _253
REMARK  103  A    between atoms: _253  and  _254
REMARK  104  A    between atoms: _257  and  _259
REMARK  105  A    between atoms: _259  and  _260
REMARK  106  A    between atoms: _259  and  _262
REMARK  107  A    between atoms: _262  and  _263
REMARK  108  A    between atoms: _263  and  _264
REMARK  109  A    between atoms: _269  and  _271
REMARK  110  A    between atoms: _271  and  _272
REMARK  111  A    between atoms: _271  and  _274
REMARK  112  A    between atoms: _274  and  _275
REMARK  113  A    between atoms: _277  and  _279
REMARK  114  A    between atoms: _279  and  _280
REMARK  115  A    between atoms: _279  and  _282
REMARK  116  A    between atoms: _282  and  _283
REMARK  117  A    between atoms: _289  and  _291
REMARK  118  A    between atoms: _291  and  _292
REMARK  119  A    between atoms: _291  and  _294
REMARK  120  A    between atoms: _294  and  _295
REMARK  121  A    between atoms: _295  and  _296
REMARK  122  A    between atoms: _296  and  _297
REMARK  123  A    between atoms: _306  and  _308
REMARK  124  A    between atoms: _308  and  _309
REMARK  125  A    between atoms: _308  and  _311
REMARK  126  A    between atoms: _314  and  _316
REMARK  127  A    between atoms: _316  and  _317
REMARK  128  A    between atoms: _316  and  _319
REMARK  129  A    between atoms: _319  and  _320
REMARK  130  A    between atoms: _323  and  _325
REMARK  131  A    between atoms: _325  and  _326
REMARK  132  A    between atoms: _325  and  _328
REMARK  133  A    between atoms: _328  and  _329
REMARK  134  A    between atoms: _332  and  _334
REMARK  135  A    between atoms: _334  and  _335
REMARK  136  A    between atoms: _334  and  _337
REMARK  137  A    between atoms: _337  and  _338
REMARK  138  A    between atoms: _338  and  _339
REMARK  139  A    between atoms: _339  and  _340
REMARK  140  A    between atoms: _349  and  _351
REMARK  141  A    between atoms: _351  and  _352
REMARK  142  A    between atoms: _351  and  _354
REMARK  143  A    between atoms: _354  and  _355
REMARK  144  A    between atoms: _358  and  _360
REMARK  145  A    between atoms: _360  and  _361
REMARK  146  A    between atoms: _360  and  _363
REMARK  147  A    between atoms: _363  and  _364
REMARK  148  A    between atoms: _367  and  _369
REMARK  149  A    between atoms: _369  and  _370
REMARK  150  A    between atoms: _369  and  _372
REMARK  151  A    between atoms: _372  and  _373
REMARK  152  A    between atoms: _378  and  _379
REMARK  153  A    between atoms: _381  and  _383
REMARK  154  A    between atoms: _383  and  _384
REMARK  155  A    between atoms: _383  and  _386
REMARK  156  A    between atoms: _386  and  _387
REMARK  157  A    between atoms: _392  and  _393
REMARK  158  A    between atoms: _395  and  _397
REMARK  159  A    between atoms: _397  and  _398
REMARK  160  A    between atoms: _397  and  _400
REMARK  161  A    between atoms: _400  and  _401
REMARK  162  A    between atoms: _404  and  _406
REMARK  163  A    between atoms: _406  and  _407
REMARK  164  A    between atoms: _406  and  _409
REMARK  165  A    between atoms: _409  and  _410
REMARK  166  A    between atoms: _410  and  _411
REMARK  167  A    between atoms: _416  and  _418
REMARK  168  A    between atoms: _418  and  _419
REMARK  169  A    between atoms: _418  and  _421
REMARK  170  A    between atoms: _424  and  _426
REMARK  171  A    between atoms: _426  and  _427
REMARK  172  A    between atoms: _426  and  _429
REMARK  173  A    between atoms: _429  and  _430
REMARK  174  A    between atoms: _433  and  _435
REMARK  175  A    between atoms: _435  and  _436
REMARK  176  A    between atoms: _435  and  _438
REMARK  177  A    between atoms: _438  and  _439
REMARK  178  A    between atoms: _441  and  _443
REMARK  179  A    between atoms: _443  and  _444
REMARK  180  A    between atoms: _446  and  _448
REMARK  181  A    between atoms: _448  and  _449
REMARK  182  A    between atoms: _448  and  _451
REMARK  183  A    between atoms: _451  and  _452
REMARK  184  A    between atoms: _452  and  _753
REMARK  185  A    between atoms: _453  and  _455
REMARK  186  A    between atoms: _455  and  _456
REMARK  187  A    between atoms: _455  and  _458
REMARK  188  A    between atoms: _458  and  _459
REMARK  189  A    between atoms: _464  and  _465
REMARK  190  A    between atoms: _467  and  _469
REMARK  191  A    between atoms: _469  and  _470
REMARK  192  A    between atoms: _469  and  _472
REMARK  193  A    between atoms: _472  and  _473
REMARK  194  A    between atoms: _473  and  _474
REMARK  195  A    between atoms: _479  and  _481
REMARK  196  A    between atoms: _481  and  _482
REMARK  197  A    between atoms: _481  and  _484
REMARK  198  A    between atoms: _484  and  _485
REMARK  199  A    between atoms: _485  and  _486
REMARK  200  A    between atoms: _491  and  _493
REMARK  201  A    between atoms: _493  and  _494
REMARK  202  A    between atoms: _493  and  _496
REMARK  203  A    between atoms: _496  and  _497
REMARK  204  A    between atoms: _502  and  _503
REMARK  205  A    between atoms: _505  and  _507
REMARK  206  A    between atoms: _507  and  _508
REMARK  207  A    between atoms: _511  and  _513
REMARK  208  A    between atoms: _513  and  _514
REMARK  209  A    between atoms: _513  and  _516
REMARK  210  A    between atoms: _516  and  _517
REMARK  211  A    between atoms: _522  and  _523
REMARK  212  A    between atoms: _525  and  _527
REMARK  213  A    between atoms: _527  and  _528
REMARK  214  A    between atoms: _527  and  _530
REMARK  215  A    between atoms: _530  and  _531
REMARK  216  A    between atoms: _536  and  _537
REMARK  217  A    between atoms: _539  and  _541
REMARK  218  A    between atoms: _541  and  _542
REMARK  219  A    between atoms: _541  and  _544
REMARK  220  A    between atoms: _544  and  _545
REMARK  221  A    between atoms: _548  and  _550
REMARK  222  A    between atoms: _550  and  _551
REMARK  223  A    between atoms: _554  and  _556
REMARK  224  A    between atoms: _556  and  _557
REMARK  225  A    between atoms: _560  and  _562
REMARK  226  A    between atoms: _562  and  _563
REMARK  227  A    between atoms: _562  and  _565
REMARK  228  A    between atoms: _565  and  _566
REMARK  229  A    between atoms: _569  and  _571
REMARK  230  A    between atoms: _571  and  _572
REMARK  231  A    between atoms: _571  and  _574
REMARK  232  A    between atoms: _574  and  _575
REMARK  233  A    between atoms: _578  and  _580
REMARK  234  A    between atoms: _580  and  _581
REMARK  235  A    between atoms: _580  and  _583
REMARK  236  A    between atoms: _583  and  _584
REMARK  237  A    between atoms: _587  and  _589
REMARK  238  A    between atoms: _589  and  _590
REMARK  239  A    between atoms: _589  and  _592
REMARK  240  A    between atoms: _592  and  _593
REMARK  241  A    between atoms: _593  and  _594
REMARK  242  A    between atoms: _594  and  _595
REMARK  243  A    between atoms: _595  and  _596
REMARK  244  A    between atoms: _600  and  _602
REMARK  245  A    between atoms: _602  and  _603
REMARK  246  A    between atoms: _602  and  _605
REMARK  247  A    between atoms: _605  and  _606
REMARK  248  A    between atoms: _611  and  _613
REMARK  249  A    between atoms: _613  and  _614
REMARK  250  A    between atoms: _613  and  _616
REMARK  251  A    between atoms: _616  and  _617
REMARK  252  A    between atoms: _617  and  _618
REMARK  253  A    between atoms: _618  and  _619
REMARK  254  A    between atoms: _619  and  _620
REMARK  255  A    between atoms: _624  and  _626
REMARK  256  A    between atoms: _626  and  _627
REMARK  257  A    between atoms: _626  and  _629
REMARK  258  A    between atoms: _629  and  _630
REMARK  259  A    between atoms: _640  and  _642
REMARK  260  A    between atoms: _642  and  _643
REMARK  261  A    between atoms: _646  and  _648
REMARK  262  A    between atoms: _648  and  _649
REMARK  263  A    between atoms: _648  and  _651
REMARK  264  A    between atoms: _651  and  _652
REMARK  265  A    between atoms: _652  and  _653
REMARK  266  A    between atoms: _656  and  _658
REMARK  267  A    between atoms: _658  and  _659
REMARK  268  A    between atoms: _658  and  _661
REMARK  269  A    between atoms: _661  and  _662
REMARK  270  A    between atoms: _662  and  _663
REMARK  271  A    between atoms: _666  and  _668
REMARK  272  A    between atoms: _668  and  _669
REMARK  273  A    between atoms: _668  and  _671
REMARK  274  A    between atoms: _671  and  _672
REMARK  275  A    between atoms: _672  and  _673
REMARK  276  A    between atoms: _673  and  _674
REMARK  277  A    between atoms: _683  and  _685
REMARK  278  A    between atoms: _685  and  _686
REMARK  279  A    between atoms: _685  and  _688
REMARK  280  A    between atoms: _688  and  _689
REMARK  281  A    between atoms: _692  and  _694
REMARK  282  A    between atoms: _694  and  _695
REMARK  283  A    between atoms: _694  and  _697
REMARK  284  A    between atoms: _697  and  _698
REMARK  285  A    between atoms: _698  and  _699
REMARK  286  A    between atoms: _699  and  _700
REMARK  287  A    between atoms: _709  and  _711
REMARK  288  A    between atoms: _711  and  _712
REMARK  289  A    between atoms: _715  and  _717
REMARK  290  A    between atoms: _717  and  _718
REMARK  291  A    between atoms: _717  and  _720
REMARK  292  A    between atoms: _720  and  _721
REMARK  293  A    between atoms: _726  and  _727
REMARK  294  A    between atoms: _729  and  _731
REMARK  295  A    between atoms: _731  and  _732
REMARK  296  A    between atoms: _731  and  _734
REMARK  297  A    between atoms: _734  and  _735
REMARK  298  A    between atoms: _738  and  _740
REMARK  299  A    between atoms: _740  and  _741
REMARK  300  A    between atoms: _740  and  _743
REMARK  301  A    between atoms: _743  and  _744
REMARK  302  A    between atoms: _747  and  _749
REMARK  303  A    between atoms: _749  and  _750
REMARK  304  A    between atoms: _749  and  _752
REMARK  305  A    between atoms: _752  and  _753
REMARK  306  A    between atoms: _754  and  _756
REMARK  307  A    between atoms: _756  and  _757
REMARK  308  A    between atoms: _756  and  _759
REMARK  309  A    between atoms: _762  and  _764
REMARK  310  A    between atoms: _764  and  _765
REMARK  311  A    between atoms: _764  and  _767
REMARK  312  A    between atoms: _767  and  _768
REMARK  313  A    between atoms: _768  and  _769
REMARK  314  A    between atoms: _772  and  _774
REMARK  315  A    between atoms: _774  and  _775
REMARK  316  A    between atoms: _774  and  _777
REMARK  317  A    between atoms: _777  and  _778
REMARK  318  A    between atoms: _788  and  _790
REMARK  319  A    between atoms: _790  and  _791
REMARK  320  A    between atoms: _790  and  _793
REMARK  321  A    between atoms: _793  and  _794
REMARK  322  A    between atoms: _797  and  _799
REMARK  323  A    between atoms: _799  and  _800
REMARK  324  A    between atoms: _799  and  _802
REMARK  325  A    between atoms: _802  and  _803
REMARK  326  A    between atoms: _808  and  _809
REMARK                            x       y       z     vdW  Elec       q    Type
REMARK                         _______ _______ _______ _____ _____    ______ ____
ROOT
ATOM      1  O   HOH     1       0.776  12.818  -4.578  0.00  0.00    +0.000 OA
ENDROOT
TORSDOF 0
REMARK  Name = ../refined-set-2016/3p9m/3p9m_pocket.pdb
REMARK  326 active torsions:
REMARK  status: ('A' for Active; 'I' for Inactive)
REMARK    1  A    between atoms: _1  and  _3
REMARK    2  A    between atoms: _3  and  _4
REMARK    3  A    between atoms: _3  and  _6
REMARK    4  A    between atoms: _6  and  _7
REMARK    5  A    between atoms: _10  and  _12
REMARK    6  A    between atoms: _12  and  _13
REMARK    7  A    between atoms: _12  and  _15
REMARK    8  A    between atoms: _15  and  _16
REMARK    9  A    between atoms: _16  and  _17
REMARK   10  A    between atoms: _17  and  _18
REMARK   11  A    between atoms: _27  and  _29
REMARK   12  A    between atoms: _29  and  _30
REMARK   13  A    between atoms: _29  and  _32
REMARK   14  A    between atoms: _32  and  _33
REMARK   15  A    between atoms: _38  and  _39
REMARK   16  A    between atoms: _41  and  _43
REMARK   17  A    between atoms: _43  and  _44
REMARK   18  A    between atoms: _43  and  _46
REMARK   19  A    between atoms: _46  and  _47
REMARK   20  A    between atoms: _53  and  _55
REMARK   21  A    between atoms: _55  and  _56
REMARK   22  A    between atoms: _55  and  _58
REMARK   23  A    between atoms: _61  and  _63
REMARK   24  A    between atoms: _63  and  _64
REMARK   25  A    between atoms: _63  and  _66
REMARK   26  A    between atoms: _66  and  _67
REMARK   27  A    between atoms: _70  and  _72
REMARK   28  A    between atoms: _72  and  _73
REMARK   29  A    between atoms: _72  and  _75
REMARK   30  A    between atoms: _75  and  _76
REMARK   31  A    between atoms: _81  and  _82
REMARK   32  A    between atoms: _84  and  _86
REMARK   33  A    between atoms: _86  and  _87
REMARK   34  A    between atoms: _86  and  _89
REMARK   35  A    between atoms: _89  and  _90
REMARK   36  A    between atoms: _90  and  _91
REMARK   37  A    between atoms: _93  and  _95
REMARK   38  A    between atoms: _95  and  _96
REMARK   39  A    between atoms: _95  and  _98
REMARK   40  A    between atoms: _98  and  _99
REMARK   41  A    between atoms: _99  and  _100
REMARK   42  A    between atoms: _103  and  _105
REMARK   43  A    between atoms: _105  and  _106
REMARK   44  A    between atoms: _105  and  _108
REMARK   45  A    between atoms: _111  and  _113
REMARK   46  A    between atoms: _113  and  _114
REMARK   47  A    between atoms: _116  and  _118
REMARK   48  A    between atoms: _118  and  _119
REMARK   49  A    between atoms: _118  and  _121
REMARK   50  A    between atoms: _121  and  _122
REMARK   51  A    between atoms: _128  and  _130
REMARK   52  A    between atoms: _130  and  _131
REMARK   53  A    between atoms: _130  and  _133
REMARK   54  A    between atoms: _136  and  _138
REMARK   55  A    between atoms: _138  and  _139
REMARK   56  A    between atoms: _138  and  _141
REMARK   57  A    between atoms: _141  and  _142
REMARK   58  A    between atoms: _148  and  _150
REMARK   59  A    between atoms: _150  and  _151
REMARK   60  A    between atoms: _150  and  _153
REMARK   61  A    between atoms: _153  and  _154
REMARK   62  A    between atoms: _159  and  _160
REMARK   63  A    between atoms: _162  and  _164
REMARK   64  A    between atoms: _164  and  _165
REMARK   65  A    between atoms: _164  and  _167
REMARK   66  A    between atoms: _167  and  _168
REMARK   67  A    between atoms: _168  and  _169
REMARK   68  A    between atoms: _171  and  _173
REMARK   69  A    between atoms: _173  and  _174
REMARK   70  A    between atoms: _173  and  _176
REMARK   71  A    between atoms: _176  and  _177
REMARK   72  A    between atoms: _182  and  _183
REMARK   73  A    between atoms: _185  and  _187
REMARK   74  A    between atoms: _187  and  _188
REMARK   75  A    between atoms: _187  and  _190
REMARK   76  A    between atoms: _190  and  _191
REMARK   77  A    between atoms: _191  and  _192
REMARK   78  A    between atoms: _192  and  _193
REMARK   79  A    between atoms: _202  and  _204
REMARK   80  A    between atoms: _204  and  _205
REMARK   81  A    between atoms: _204  and  _207
REMARK   82  A    between atoms: _207  and  _208
REMARK   83  A    between atoms: _208  and  _209
REMARK   84  A    between atoms: _212  and  _214
REMARK   85  A    between atoms: _214  and  _215
REMARK   86  A    between atoms: _214  and  _217
REMARK   87  A    between atoms: _217  and  _218
REMARK   88  A    between atoms: _218  and  _219
REMARK   89  A    between atoms: _219  and  _220
REMARK   90  A    between atoms: _220  and  _221
REMARK   91  A    between atoms: _225  and  _227
REMARK   92  A    between atoms: _227  and  _228
REMARK   93  A    between atoms: _231  and  _233
REMARK   94  A    between atoms: _233  and  _234
REMARK   95  A    between atoms: _236  and  _238
REMARK   96  A    between atoms: _238  and  _239
REMARK   97  A    between atoms: _238  and  _241
REMARK   98  A    between atoms: _241  and  _242
REMARK   99  A    between atoms: _247  and  _249
REMARK  100  A    between atoms: _249  and  _250
REMARK  101  A    between atoms: _249  and  _252
REMARK  102  A    between atoms: _252  and  _253
REMARK  103  A    between atoms: _253  and  _254
REMARK  104  A    between atoms: _257  and  _259
REMARK  105  A    between atoms: _259  and  _260
REMARK  106  A    between atoms: _259  and  _262
REMARK  107  A    between atoms: _262  and  _263
REMARK  108  A    between atoms: _263  and  _264
REMARK  109  A    between atoms: _269  and  _271
REMARK  110  A    between atoms: _271  and  _272
REMARK  111  A    between atoms: _271  and  _274
REMARK  112  A    between atoms: _274  and  _275
REMARK  113  A    between atoms: _277  and  _279
REMARK  114  A    between atoms: _279  and  _280
REMARK  115  A    between atoms: _279  and  _282
REMARK  116  A    between atoms: _282  and  _283
REMARK  117  A    between atoms: _289  and  _291
REMARK  118  A    between atoms: _291  and  _292
REMARK  119  A    between atoms: _291  and  _294
REMARK  120  A    between atoms: _294  and  _295
REMARK  121  A    between atoms: _295  and  _296
REMARK  122  A    between atoms: _296  and  _297
REMARK  123  A    between atoms: _306  and  _308
REMARK  124  A    between atoms: _308  and  _309
REMARK  125  A    between atoms: _308  and  _311
REMARK  126  A    between atoms: _314  and  _316
REMARK  127  A    between atoms: _316  and  _317
REMARK  128  A    between atoms: _316  and  _319
REMARK  129  A    between atoms: _319  and  _320
REMARK  130  A    between atoms: _323  and  _325
REMARK  131  A    between atoms: _325  and  _326
REMARK  132  A    between atoms: _325  and  _328
REMARK  133  A    between atoms: _328  and  _329
REMARK  134  A    between atoms: _332  and  _334
REMARK  135  A    between atoms: _334  and  _335
REMARK  136  A    between atoms: _334  and  _337
REMARK  137  A    between atoms: _337  and  _338
REMARK  138  A    between atoms: _338  and  _339
REMARK  139  A    between atoms: _339  and  _340
REMARK  140  A    between atoms: _349  and  _351
REMARK  141  A    between atoms: _351  and  _352
REMARK  142  A    between atoms: _351  and  _354
REMARK  143  A    between atoms: _354  and  _355
REMARK  144  A    between atoms: _358  and  _360
REMARK  145  A    between atoms: _360  and  _361
REMARK  146  A    between atoms: _360  and  _363
REMARK  147  A    between atoms: _363  and  _364
REMARK  148  A    between atoms: _367  and  _369
REMARK  149  A    between atoms: _369  and  _370
REMARK  150  A    between atoms: _369  and  _372
REMARK  151  A    between atoms: _372  and  _373
REMARK  152  A    between atoms: _378  and  _379
REMARK  153  A    between atoms: _381  and  _383
REMARK  154  A    between atoms: _383  and  _384
REMARK  155  A    between atoms: _383  and  _386
REMARK  156  A    between atoms: _386  and  _387
REMARK  157  A    between atoms: _392  and  _393
REMARK  158  A    between atoms: _395  and  _397
REMARK  159  A    between atoms: _397  and  _398
REMARK  160  A    between atoms: _397  and  _400
REMARK  161  A    between atoms: _400  and  _401
REMARK  162  A    between atoms: _404  and  _406
REMARK  163  A    between atoms: _406  and  _407
REMARK  164  A    between atoms: _406  and  _409
REMARK  165  A    between atoms: _409  and  _410
REMARK  166  A    between atoms: _410  and  _411
REMARK  167  A    between atoms: _416  and  _418
REMARK  168  A    between atoms: _418  and  _419
REMARK  169  A    between atoms: _418  and  _421
REMARK  170  A    between atoms: _424  and  _426
REMARK  171  A    between atoms: _426  and  _427
REMARK  172  A    between atoms: _426  and  _429
REMARK  173  A    between atoms: _429  and  _430
REMARK  174  A    between atoms: _433  and  _435
REMARK  175  A    between atoms: _435  and  _436
REMARK  176  A    between atoms: _435  and  _438
REMARK  177  A    between atoms: _438  and  _439
REMARK  178  A    between atoms: _441  and  _443
REMARK  179  A    between atoms: _443  and  _444
REMARK  180  A    between atoms: _446  and  _448
REMARK  181  A    between atoms: _448  and  _449
REMARK  182  A    between atoms: _448  and  _451
REMARK  183  A    between atoms: _451  and  _452
REMARK  184  A    between atoms: _452  and  _753
REMARK  185  A    between atoms: _453  and  _455
REMARK  186  A    between atoms: _455  and  _456
REMARK  187  A    between atoms: _455  and  _458
REMARK  188  A    between atoms: _458  and  _459
REMARK  189  A    between atoms: _464  and  _465
REMARK  190  A    between atoms: _467  and  _469
REMARK  191  A    between atoms: _469  and  _470
REMARK  192  A    between atoms: _469  and  _472
REMARK  193  A    between atoms: _472  and  _473
REMARK  194  A    between atoms: _473  and  _474
REMARK  195  A    between atoms: _479  and  _481
REMARK  196  A    between atoms: _481  and  _482
REMARK  197  A    between atoms: _481  and  _484
REMARK  198  A    between atoms: _484  and  _485
REMARK  199  A    between atoms: _485  and  _486
REMARK  200  A    between atoms: _491  and  _493
REMARK  201  A    between atoms: _493  and  _494
REMARK  202  A    between atoms: _493  and  _496
REMARK  203  A    between atoms: _496  and  _497
REMARK  204  A    between atoms: _502  and  _503
REMARK  205  A    between atoms: _505  and  _507
REMARK  206  A    between atoms: _507  and  _508
REMARK  207  A    between atoms: _511  and  _513
REMARK  208  A    between atoms: _513  and  _514
REMARK  209  A    between atoms: _513  and  _516
REMARK  210  A    between atoms: _516  and  _517
REMARK  211  A    between atoms: _522  and  _523
REMARK  212  A    between atoms: _525  and  _527
REMARK  213  A    between atoms: _527  and  _528
REMARK  214  A    between atoms: _527  and  _530
REMARK  215  A    between atoms: _530  and  _531
REMARK  216  A    between atoms: _536  and  _537
REMARK  217  A    between atoms: _539  and  _541
REMARK  218  A    between atoms: _541  and  _542
REMARK  219  A    between atoms: _541  and  _544
REMARK  220  A    between atoms: _544  and  _545
REMARK  221  A    between atoms: _548  and  _550
REMARK  222  A    between atoms: _550  and  _551
REMARK  223  A    between atoms: _554  and  _556
REMARK  224  A    between atoms: _556  and  _557
REMARK  225  A    between atoms: _560  and  _562
REMARK  226  A    between atoms: _562  and  _563
REMARK  227  A    between atoms: _562  and  _565
REMARK  228  A    between atoms: _565  and  _566
REMARK  229  A    between atoms: _569  and  _571
REMARK  230  A    between atoms: _571  and  _572
REMARK  231  A    between atoms: _571  and  _574
REMARK  232  A    between atoms: _574  and  _575
REMARK  233  A    between atoms: _578  and  _580
REMARK  234  A    between atoms: _580  and  _581
REMARK  235  A    between atoms: _580  and  _583
REMARK  236  A    between atoms: _583  and  _584
REMARK  237  A    between atoms: _587  and  _589
REMARK  238  A    between atoms: _589  and  _590
REMARK  239  A    between atoms: _589  and  _592
REMARK  240  A    between atoms: _592  and  _593
REMARK  241  A    between atoms: _593  and  _594
REMARK  242  A    between atoms: _594  and  _595
REMARK  243  A    between atoms: _595  and  _596
REMARK  244  A    between atoms: _600  and  _602
REMARK  245  A    between atoms: _602  and  _603
REMARK  246  A    between atoms: _602  and  _605
REMARK  247  A    between atoms: _605  and  _606
REMARK  248  A    between atoms: _611  and  _613
REMARK  249  A    between atoms: _613  and  _614
REMARK  250  A    between atoms: _613  and  _616
REMARK  251  A    between atoms: _616  and  _617
REMARK  252  A    between atoms: _617  and  _618
REMARK  253  A    between atoms: _618  and  _619
REMARK  254  A    between atoms: _619  and  _620
REMARK  255  A    between atoms: _624  and  _626
REMARK  256  A    between atoms: _626  and  _627
REMARK  257  A    between atoms: _626  and  _629
REMARK  258  A    between atoms: _629  and  _630
REMARK  259  A    between atoms: _640  and  _642
REMARK  260  A    between atoms: _642  and  _643
REMARK  261  A    between atoms: _646  and  _648
REMARK  262  A    between atoms: _648  and  _649
REMARK  263  A    between atoms: _648  and  _651
REMARK  264  A    between atoms: _651  and  _652
REMARK  265  A    between atoms: _652  and  _653
REMARK  266  A    between atoms: _656  and  _658
REMARK  267  A    between atoms: _658  and  _659
REMARK  268  A    between atoms: _658  and  _661
REMARK  269  A    between atoms: _661  and  _662
REMARK  270  A    between atoms: _662  and  _663
REMARK  271  A    between atoms: _666  and  _668
REMARK  272  A    between atoms: _668  and  _669
REMARK  273  A    between atoms: _668  and  _671
REMARK  274  A    between atoms: _671  and  _672
REMARK  275  A    between atoms: _672  and  _673
REMARK  276  A    between atoms: _673  and  _674
REMARK  277  A    between atoms: _683  and  _685
REMARK  278  A    between atoms: _685  and  _686
REMARK  279  A    between atoms: _685  and  _688
REMARK  280  A    between atoms: _688  and  _689
REMARK  281  A    between atoms: _692  and  _694
REMARK  282  A    between atoms: _694  and  _695
REMARK  283  A    between atoms: _694  and  _697
REMARK  284  A    between atoms: _697  and  _698
REMARK  285  A    between atoms: _698  and  _699
REMARK  286  A    between atoms: _699  and  _700
REMARK  287  A    between atoms: _709  and  _711
REMARK  288  A    between atoms: _711  and  _712
REMARK  289  A    between atoms: _715  and  _717
REMARK  290  A    between atoms: _717  and  _718
REMARK  291  A    between atoms: _717  and  _720
REMARK  292  A    between atoms: _720  and  _721
REMARK  293  A    between atoms: _726  and  _727
REMARK  294  A    between atoms: _729  and  _731
REMARK  295  A    between atoms: _731  and  _732
REMARK  296  A    between atoms: _731  and  _734
REMARK  297  A    between atoms: _734  and  _735
REMARK  298  A    between atoms: _738  and  _740
REMARK  299  A    between atoms: _740  and  _741
REMARK  300  A    between atoms: _740  and  _743
REMARK  301  A    between atoms: _743  and  _744
REMARK  302  A    between atoms: _747  and  _749
REMARK  303  A    between atoms: _749  and  _750
REMARK  304  A    between atoms: _749  and  _752
REMARK  305  A    between atoms: _752  and  _753
REMARK  306  A    between atoms: _754  and  _756
REMARK  307  A    between atoms: _756  and  _757
REMARK  308  A    between atoms: _756  and  _759
REMARK  309  A    between atoms: _762  and  _764
REMARK  310  A    between atoms: _764  and  _765
REMARK  311  A    between atoms: _764  and  _767
REMARK  312  A    between atoms: _767  and  _768
REMARK  313  A    between atoms: _768  and  _769
REMARK  314  A    between atoms: _772  and  _774
REMARK  315  A    between atoms: _774  and  _775
REMARK  316  A    between atoms: _774  and  _777
REMARK  317  A    between atoms: _777  and  _778
REMARK  318  A    between atoms: _788  and  _790
REMARK  319  A    between atoms: _790  and  _791
REMARK  320  A    between atoms: _790  and  _793
REMARK  321  A    between atoms: _793  and  _794
REMARK  322  A    between atoms: _797  and  _799
REMARK  323  A    between atoms: _799  and  _800
REMARK  324  A    between atoms: _799  and  _802
REMARK  325  A    between atoms: _802  and  _803
REMARK  326  A    between atoms: _808  and  _809
REMARK                            x       y       z     vdW  Elec       q    Type
REMARK                         _______ _______ _______ _____ _____    ______ ____
ROOT
ATOM      1  O   HOH     1      -2.100   3.070   2.142  0.00  0.00    +0.000 OA
ENDROOT
TORSDOF 0
REMARK  Name = ../refined-set-2016/3p9m/3p9m_pocket.pdb
REMARK  326 active torsions:
REMARK  status: ('A' for Active; 'I' for Inactive)
REMARK    1  A    between atoms: _1  and  _3
REMARK    2  A    between atoms: _3  and  _4
REMARK    3  A    between atoms: _3  and  _6
REMARK    4  A    between atoms: _6  and  _7
REMARK    5  A    between atoms: _10  and  _12
REMARK    6  A    between atoms: _12  and  _13
REMARK    7  A    between atoms: _12  and  _15
REMARK    8  A    between atoms: _15  and  _16
REMARK    9  A    between atoms: _16  and  _17
REMARK   10  A    between atoms: _17  and  _18
REMARK   11  A    between atoms: _27  and  _29
REMARK   12  A    between atoms: _29  and  _30
REMARK   13  A    between atoms: _29  and  _32
REMARK   14  A    between atoms: _32  and  _33
REMARK   15  A    between atoms: _38  and  _39
REMARK   16  A    between atoms: _41  and  _43
REMARK   17  A    between atoms: _43  and  _44
REMARK   18  A    between atoms: _43  and  _46
REMARK   19  A    between atoms: _46  and  _47
REMARK   20  A    between atoms: _53  and  _55
REMARK   21  A    between atoms: _55  and  _56
REMARK   22  A    between atoms: _55  and  _58
REMARK   23  A    between atoms: _61  and  _63
REMARK   24  A    between atoms: _63  and  _64
REMARK   25  A    between atoms: _63  and  _66
REMARK   26  A    between atoms: _66  and  _67
REMARK   27  A    between atoms: _70  and  _72
REMARK   28  A    between atoms: _72  and  _73
REMARK   29  A    between atoms: _72  and  _75
REMARK   30  A    between atoms: _75  and  _76
REMARK   31  A    between atoms: _81  and  _82
REMARK   32  A    between atoms: _84  and  _86
REMARK   33  A    between atoms: _86  and  _87
REMARK   34  A    between atoms: _86  and  _89
REMARK   35  A    between atoms: _89  and  _90
REMARK   36  A    between atoms: _90  and  _91
REMARK   37  A    between atoms: _93  and  _95
REMARK   38  A    between atoms: _95  and  _96
REMARK   39  A    between atoms: _95  and  _98
REMARK   40  A    between atoms: _98  and  _99
REMARK   41  A    between atoms: _99  and  _100
REMARK   42  A    between atoms: _103  and  _105
REMARK   43  A    between atoms: _105  and  _106
REMARK   44  A    between atoms: _105  and  _108
REMARK   45  A    between atoms: _111  and  _113
REMARK   46  A    between atoms: _113  and  _114
REMARK   47  A    between atoms: _116  and  _118
REMARK   48  A    between atoms: _118  and  _119
REMARK   49  A    between atoms: _118  and  _121
REMARK   50  A    between atoms: _121  and  _122
REMARK   51  A    between atoms: _128  and  _130
REMARK   52  A    between atoms: _130  and  _131
REMARK   53  A    between atoms: _130  and  _133
REMARK   54  A    between atoms: _136  and  _138
REMARK   55  A    between atoms: _138  and  _139
REMARK   56  A    between atoms: _138  and  _141
REMARK   57  A    between atoms: _141  and  _142
REMARK   58  A    between atoms: _148  and  _150
REMARK   59  A    between atoms: _150  and  _151
REMARK   60  A    between atoms: _150  and  _153
REMARK   61  A    between atoms: _153  and  _154
REMARK   62  A    between atoms: _159  and  _160
REMARK   63  A    between atoms: _162  and  _164
REMARK   64  A    between atoms: _164  and  _165
REMARK   65  A    between atoms: _164  and  _167
REMARK   66  A    between atoms: _167  and  _168
REMARK   67  A    between atoms: _168  and  _169
REMARK   68  A    between atoms: _171  and  _173
REMARK   69  A    between atoms: _173  and  _174
REMARK   70  A    between atoms: _173  and  _176
REMARK   71  A    between atoms: _176  and  _177
REMARK   72  A    between atoms: _182  and  _183
REMARK   73  A    between atoms: _185  and  _187
REMARK   74  A    between atoms: _187  and  _188
REMARK   75  A    between atoms: _187  and  _190
REMARK   76  A    between atoms: _190  and  _191
REMARK   77  A    between atoms: _191  and  _192
REMARK   78  A    between atoms: _192  and  _193
REMARK   79  A    between atoms: _202  and  _204
REMARK   80  A    between atoms: _204  and  _205
REMARK   81  A    between atoms: _204  and  _207
REMARK   82  A    between atoms: _207  and  _208
REMARK   83  A    between atoms: _208  and  _209
REMARK   84  A    between atoms: _212  and  _214
REMARK   85  A    between atoms: _214  and  _215
REMARK   86  A    between atoms: _214  and  _217
REMARK   87  A    between atoms: _217  and  _218
REMARK   88  A    between atoms: _218  and  _219
REMARK   89  A    between atoms: _219  and  _220
REMARK   90  A    between atoms: _220  and  _221
REMARK   91  A    between atoms: _225  and  _227
REMARK   92  A    between atoms: _227  and  _228
REMARK   93  A    between atoms: _231  and  _233
REMARK   94  A    between atoms: _233  and  _234
REMARK   95  A    between atoms: _236  and  _238
REMARK   96  A    between atoms: _238  and  _239
REMARK   97  A    between atoms: _238  and  _241
REMARK   98  A    between atoms: _241  and  _242
REMARK   99  A    between atoms: _247  and  _249
REMARK  100  A    between atoms: _249  and  _250
REMARK  101  A    between atoms: _249  and  _252
REMARK  102  A    between atoms: _252  and  _253
REMARK  103  A    between atoms: _253  and  _254
REMARK  104  A    between atoms: _257  and  _259
REMARK  105  A    between atoms: _259  and  _260
REMARK  106  A    between atoms: _259  and  _262
REMARK  107  A    between atoms: _262  and  _263
REMARK  108  A    between atoms: _263  and  _264
REMARK  109  A    between atoms: _269  and  _271
REMARK  110  A    between atoms: _271  and  _272
REMARK  111  A    between atoms: _271  and  _274
REMARK  112  A    between atoms: _274  and  _275
REMARK  113  A    between atoms: _277  and  _279
REMARK  114  A    between atoms: _279  and  _280
REMARK  115  A    between atoms: _279  and  _282
REMARK  116  A    between atoms: _282  and  _283
REMARK  117  A    between atoms: _289  and  _291
REMARK  118  A    between atoms: _291  and  _292
REMARK  119  A    between atoms: _291  and  _294
REMARK  120  A    between atoms: _294  and  _295
REMARK  121  A    between atoms: _295  and  _296
REMARK  122  A    between atoms: _296  and  _297
REMARK  123  A    between atoms: _306  and  _308
REMARK  124  A    between atoms: _308  and  _309
REMARK  125  A    between atoms: _308  and  _311
REMARK  126  A    between atoms: _314  and  _316
REMARK  127  A    between atoms: _316  and  _317
REMARK  128  A    between atoms: _316  and  _319
REMARK  129  A    between atoms: _319  and  _320
REMARK  130  A    between atoms: _323  and  _325
REMARK  131  A    between atoms: _325  and  _326
REMARK  132  A    between atoms: _325  and  _328
REMARK  133  A    between atoms: _328  and  _329
REMARK  134  A    between atoms: _332  and  _334
REMARK  135  A    between atoms: _334  and  _335
REMARK  136  A    between atoms: _334  and  _337
REMARK  137  A    between atoms: _337  and  _338
REMARK  138  A    between atoms: _338  and  _339
REMARK  139  A    between atoms: _339  and  _340
REMARK  140  A    between atoms: _349  and  _351
REMARK  141  A    between atoms: _351  and  _352
REMARK  142  A    between atoms: _351  and  _354
REMARK  143  A    between atoms: _354  and  _355
REMARK  144  A    between atoms: _358  and  _360
REMARK  145  A    between atoms: _360  and  _361
REMARK  146  A    between atoms: _360  and  _363
REMARK  147  A    between atoms: _363  and  _364
REMARK  148  A    between atoms: _367  and  _369
REMARK  149  A    between atoms: _369  and  _370
REMARK  150  A    between atoms: _369  and  _372
REMARK  151  A    between atoms: _372  and  _373
REMARK  152  A    between atoms: _378  and  _379
REMARK  153  A    between atoms: _381  and  _383
REMARK  154  A    between atoms: _383  and  _384
REMARK  155  A    between atoms: _383  and  _386
REMARK  156  A    between atoms: _386  and  _387
REMARK  157  A    between atoms: _392  and  _393
REMARK  158  A    between atoms: _395  and  _397
REMARK  159  A    between atoms: _397  and  _398
REMARK  160  A    between atoms: _397  and  _400
REMARK  161  A    between atoms: _400  and  _401
REMARK  162  A    between atoms: _404  and  _406
REMARK  163  A    between atoms: _406  and  _407
REMARK  164  A    between atoms: _406  and  _409
REMARK  165  A    between atoms: _409  and  _410
REMARK  166  A    between atoms: _410  and  _411
REMARK  167  A    between atoms: _416  and  _418
REMARK  168  A    between atoms: _418  and  _419
REMARK  169  A    between atoms: _418  and  _421
REMARK  170  A    between atoms: _424  and  _426
REMARK  171  A    between atoms: _426  and  _427
REMARK  172  A    between atoms: _426  and  _429
REMARK  173  A    between atoms: _429  and  _430
REMARK  174  A    between atoms: _433  and  _435
REMARK  175  A    between atoms: _435  and  _436
REMARK  176  A    between atoms: _435  and  _438
REMARK  177  A    between atoms: _438  and  _439
REMARK  178  A    between atoms: _441  and  _443
REMARK  179  A    between atoms: _443  and  _444
REMARK  180  A    between atoms: _446  and  _448
REMARK  181  A    between atoms: _448  and  _449
REMARK  182  A    between atoms: _448  and  _451
REMARK  183  A    between atoms: _451  and  _452
REMARK  184  A    between atoms: _452  and  _753
REMARK  185  A    between atoms: _453  and  _455
REMARK  186  A    between atoms: _455  and  _456
REMARK  187  A    between atoms: _455  and  _458
REMARK  188  A    between atoms: _458  and  _459
REMARK  189  A    between atoms: _464  and  _465
REMARK  190  A    between atoms: _467  and  _469
REMARK  191  A    between atoms: _469  and  _470
REMARK  192  A    between atoms: _469  and  _472
REMARK  193  A    between atoms: _472  and  _473
REMARK  194  A    between atoms: _473  and  _474
REMARK  195  A    between atoms: _479  and  _481
REMARK  196  A    between atoms: _481  and  _482
REMARK  197  A    between atoms: _481  and  _484
REMARK  198  A    between atoms: _484  and  _485
REMARK  199  A    between atoms: _485  and  _486
REMARK  200  A    between atoms: _491  and  _493
REMARK  201  A    between atoms: _493  and  _494
REMARK  202  A    between atoms: _493  and  _496
REMARK  203  A    between atoms: _496  and  _497
REMARK  204  A    between atoms: _502  and  _503
REMARK  205  A    between atoms: _505  and  _507
REMARK  206  A    between atoms: _507  and  _508
REMARK  207  A    between atoms: _511  and  _513
REMARK  208  A    between atoms: _513  and  _514
REMARK  209  A    between atoms: _513  and  _516
REMARK  210  A    between atoms: _516  and  _517
REMARK  211  A    between atoms: _522  and  _523
REMARK  212  A    between atoms: _525  and  _527
REMARK  213  A    between atoms: _527  and  _528
REMARK  214  A    between atoms: _527  and  _530
REMARK  215  A    between atoms: _530  and  _531
REMARK  216  A    between atoms: _536  and  _537
REMARK  217  A    between atoms: _539  and  _541
REMARK  218  A    between atoms: _541  and  _542
REMARK  219  A    between atoms: _541  and  _544
REMARK  220  A    between atoms: _544  and  _545
REMARK  221  A    between atoms: _548  and  _550
REMARK  222  A    between atoms: _550  and  _551
REMARK  223  A    between atoms: _554  and  _556
REMARK  224  A    between atoms: _556  and  _557
REMARK  225  A    between atoms: _560  and  _562
REMARK  226  A    between atoms: _562  and  _563
REMARK  227  A    between atoms: _562  and  _565
REMARK  228  A    between atoms: _565  and  _566
REMARK  229  A    between atoms: _569  and  _571
REMARK  230  A    between atoms: _571  and  _572
REMARK  231  A    between atoms: _571  and  _574
REMARK  232  A    between atoms: _574  and  _575
REMARK  233  A    between atoms: _578  and  _580
REMARK  234  A    between atoms: _580  and  _581
REMARK  235  A    between atoms: _580  and  _583
REMARK  236  A    between atoms: _583  and  _584
REMARK  237  A    between atoms: _587  and  _589
REMARK  238  A    between atoms: _589  and  _590
REMARK  239  A    between atoms: _589  and  _592
REMARK  240  A    between atoms: _592  and  _593
REMARK  241  A    between atoms: _593  and  _594
REMARK  242  A    between atoms: _594  and  _595
REMARK  243  A    between atoms: _595  and  _596
REMARK  244  A    between atoms: _600  and  _602
REMARK  245  A    between atoms: _602  and  _603
REMARK  246  A    between atoms: _602  and  _605
REMARK  247  A    between atoms: _605  and  _606
REMARK  248  A    between atoms: _611  and  _613
REMARK  249  A    between atoms: _613  and  _614
REMARK  250  A    between atoms: _613  and  _616
REMARK  251  A    between atoms: _616  and  _617
REMARK  252  A    between atoms: _617  and  _618
REMARK  253  A    between atoms: _618  and  _619
REMARK  254  A    between atoms: _619  and  _620
REMARK  255  A    between atoms: _624  and  _626
REMARK  256  A    between atoms: _626  and  _627
REMARK  257  A    between atoms: _626  and  _629
REMARK  258  A    between atoms: _629  and  _630
REMARK  259  A    between atoms: _640  and  _642
REMARK  260  A    between atoms: _642  and  _643
REMARK  261  A    between atoms: _646  and  _648
REMARK  262  A    between atoms: _648  and  _649
REMARK  263  A    between atoms: _648  and  _651
REMARK  264  A    between atoms: _651  and  _652
REMARK  265  A    between atoms: _652  and  _653
REMARK  266  A    between atoms: _656  and  _658
REMARK  267  A    between atoms: _658  and  _659
REMARK  268  A    between atoms: _658  and  _661
REMARK  269  A    between atoms: _661  and  _662
REMARK  270  A    between atoms: _662  and  _663
REMARK  271  A    between atoms: _666  and  _668
REMARK  272  A    between atoms: _668  and  _669
REMARK  273  A    between atoms: _668  and  _671
REMARK  274  A    between atoms: _671  and  _672
REMARK  275  A    between atoms: _672  and  _673
REMARK  276  A    between atoms: _673  and  _674
REMARK  277  A    between atoms: _683  and  _685
REMARK  278  A    between atoms: _685  and  _686
REMARK  279  A    between atoms: _685  and  _688
REMARK  280  A    between atoms: _688  and  _689
REMARK  281  A    between atoms: _692  and  _694
REMARK  282  A    between atoms: _694  and  _695
REMARK  283  A    between atoms: _694  and  _697
REMARK  284  A    between atoms: _697  and  _698
REMARK  285  A    between atoms: _698  and  _699
REMARK  286  A    between atoms: _699  and  _700
REMARK  287  A    between atoms: _709  and  _711
REMARK  288  A    between atoms: _711  and  _712
REMARK  289  A    between atoms: _715  and  _717
REMARK  290  A    between atoms: _717  and  _718
REMARK  291  A    between atoms: _717  and  _720
REMARK  292  A    between atoms: _720  and  _721
REMARK  293  A    between atoms: _726  and  _727
REMARK  294  A    between atoms: _729  and  _731
REMARK  295  A    between atoms: _731  and  _732
REMARK  296  A    between atoms: _731  and  _734
REMARK  297  A    between atoms: _734  and  _735
REMARK  298  A    between atoms: _738  and  _740
REMARK  299  A    between atoms: _740  and  _741
REMARK  300  A    between atoms: _740  and  _743
REMARK  301  A    between atoms: _743  and  _744
REMARK  302  A    between atoms: _747  and  _749
REMARK  303  A    between atoms: _749  and  _750
REMARK  304  A    between atoms: _749  and  _752
REMARK  305  A    between atoms: _752  and  _753
REMARK  306  A    between atoms: _754  and  _756
REMARK  307  A    between atoms: _756  and  _757
REMARK  308  A    between atoms: _756  and  _759
REMARK  309  A    between atoms: _762  and  _764
REMARK  310  A    between atoms: _764  and  _765
REMARK  311  A    between atoms: _764  and  _767
REMARK  312  A    between atoms: _767  and  _768
REMARK  313  A    between atoms: _768  and  _769
REMARK  314  A    between atoms: _772  and  _774
REMARK  315  A    between atoms: _774  and  _775
REMARK  316  A    between atoms: _774  and  _777
REMARK  317  A    between atoms: _777  and  _778
REMARK  318  A    between atoms: _788  and  _790
REMARK  319  A    between atoms: _790  and  _791
REMARK  320  A    between atoms: _790  and  _793
REMARK  321  A    between atoms: _793  and  _794
REMARK  322  A    between atoms: _797  and  _799
REMARK  323  A    between atoms: _799  and  _800
REMARK  324  A    between atoms: _799  and  _802
REMARK  325  A    between atoms: _802  and  _803
REMARK  326  A    between atoms: _808  and  _809
REMARK                            x       y       z     vdW  Elec       q    Type
REMARK                         _______ _______ _______ _____ _____    ______ ____
ROOT
ATOM      1  O   HOH     1      -4.482  -7.932  -0.197  0.00  0.00    +0.000 OA
ENDROOT
TORSDOF 0
REMARK  Name = ../refined-set-2016/3p9m/3p9m_pocket.pdb
REMARK  326 active torsions:
REMARK  status: ('A' for Active; 'I' for Inactive)
REMARK    1  A    between atoms: _1  and  _3
REMARK    2  A    between atoms: _3  and  _4
REMARK    3  A    between atoms: _3  and  _6
REMARK    4  A    between atoms: _6  and  _7
REMARK    5  A    between atoms: _10  and  _12
REMARK    6  A    between atoms: _12  and  _13
REMARK    7  A    between atoms: _12  and  _15
REMARK    8  A    between atoms: _15  and  _16
REMARK    9  A    between atoms: _16  and  _17
REMARK   10  A    between atoms: _17  and  _18
REMARK   11  A    between atoms: _27  and  _29
REMARK   12  A    between atoms: _29  and  _30
REMARK   13  A    between atoms: _29  and  _32
REMARK   14  A    between atoms: _32  and  _33
REMARK   15  A    between atoms: _38  and  _39
REMARK   16  A    between atoms: _41  and  _43
REMARK   17  A    between atoms: _43  and  _44
REMARK   18  A    between atoms: _43  and  _46
REMARK   19  A    between atoms: _46  and  _47
REMARK   20  A    between atoms: _53  and  _55
REMARK   21  A    between atoms: _55  and  _56
REMARK   22  A    between atoms: _55  and  _58
REMARK   23  A    between atoms: _61  and  _63
REMARK   24  A    between atoms: _63  and  _64
REMARK   25  A    between atoms: _63  and  _66
REMARK   26  A    between atoms: _66  and  _67
REMARK   27  A    between atoms: _70  and  _72
REMARK   28  A    between atoms: _72  and  _73
REMARK   29  A    between atoms: _72  and  _75
REMARK   30  A    between atoms: _75  and  _76
REMARK   31  A    between atoms: _81  and  _82
REMARK   32  A    between atoms: _84  and  _86
REMARK   33  A    between atoms: _86  and  _87
REMARK   34  A    between atoms: _86  and  _89
REMARK   35  A    between atoms: _89  and  _90
REMARK   36  A    between atoms: _90  and  _91
REMARK   37  A    between atoms: _93  and  _95
REMARK   38  A    between atoms: _95  and  _96
REMARK   39  A    between atoms: _95  and  _98
REMARK   40  A    between atoms: _98  and  _99
REMARK   41  A    between atoms: _99  and  _100
REMARK   42  A    between atoms: _103  and  _105
REMARK   43  A    between atoms: _105  and  _106
REMARK   44  A    between atoms: _105  and  _108
REMARK   45  A    between atoms: _111  and  _113
REMARK   46  A    between atoms: _113  and  _114
REMARK   47  A    between atoms: _116  and  _118
REMARK   48  A    between atoms: _118  and  _119
REMARK   49  A    between atoms: _118  and  _121
REMARK   50  A    between atoms: _121  and  _122
REMARK   51  A    between atoms: _128  and  _130
REMARK   52  A    between atoms: _130  and  _131
REMARK   53  A    between atoms: _130  and  _133
REMARK   54  A    between atoms: _136  and  _138
REMARK   55  A    between atoms: _138  and  _139
REMARK   56  A    between atoms: _138  and  _141
REMARK   57  A    between atoms: _141  and  _142
REMARK   58  A    between atoms: _148  and  _150
REMARK   59  A    between atoms: _150  and  _151
REMARK   60  A    between atoms: _150  and  _153
REMARK   61  A    between atoms: _153  and  _154
REMARK   62  A    between atoms: _159  and  _160
REMARK   63  A    between atoms: _162  and  _164
REMARK   64  A    between atoms: _164  and  _165
REMARK   65  A    between atoms: _164  and  _167
REMARK   66  A    between atoms: _167  and  _168
REMARK   67  A    between atoms: _168  and  _169
REMARK   68  A    between atoms: _171  and  _173
REMARK   69  A    between atoms: _173  and  _174
REMARK   70  A    between atoms: _173  and  _176
REMARK   71  A    between atoms: _176  and  _177
REMARK   72  A    between atoms: _182  and  _183
REMARK   73  A    between atoms: _185  and  _187
REMARK   74  A    between atoms: _187  and  _188
REMARK   75  A    between atoms: _187  and  _190
REMARK   76  A    between atoms: _190  and  _191
REMARK   77  A    between atoms: _191  and  _192
REMARK   78  A    between atoms: _192  and  _193
REMARK   79  A    between atoms: _202  and  _204
REMARK   80  A    between atoms: _204  and  _205
REMARK   81  A    between atoms: _204  and  _207
REMARK   82  A    between atoms: _207  and  _208
REMARK   83  A    between atoms: _208  and  _209
REMARK   84  A    between atoms: _212  and  _214
REMARK   85  A    between atoms: _214  and  _215
REMARK   86  A    between atoms: _214  and  _217
REMARK   87  A    between atoms: _217  and  _218
REMARK   88  A    between atoms: _218  and  _219
REMARK   89  A    between atoms: _219  and  _220
REMARK   90  A    between atoms: _220  and  _221
REMARK   91  A    between atoms: _225  and  _227
REMARK   92  A    between atoms: _227  and  _228
REMARK   93  A    between atoms: _231  and  _233
REMARK   94  A    between atoms: _233  and  _234
REMARK   95  A    between atoms: _236  and  _238
REMARK   96  A    between atoms: _238  and  _239
REMARK   97  A    between atoms: _238  and  _241
REMARK   98  A    between atoms: _241  and  _242
REMARK   99  A    between atoms: _247  and  _249
REMARK  100  A    between atoms: _249  and  _250
REMARK  101  A    between atoms: _249  and  _252
REMARK  102  A    between atoms: _252  and  _253
REMARK  103  A    between atoms: _253  and  _254
REMARK  104  A    between atoms: _257  and  _259
REMARK  105  A    between atoms: _259  and  _260
REMARK  106  A    between atoms: _259  and  _262
REMARK  107  A    between atoms: _262  and  _263
REMARK  108  A    between atoms: _263  and  _264
REMARK  109  A    between atoms: _269  and  _271
REMARK  110  A    between atoms: _271  and  _272
REMARK  111  A    between atoms: _271  and  _274
REMARK  112  A    between atoms: _274  and  _275
REMARK  113  A    between atoms: _277  and  _279
REMARK  114  A    between atoms: _279  and  _280
REMARK  115  A    between atoms: _279  and  _282
REMARK  116  A    between atoms: _282  and  _283
REMARK  117  A    between atoms: _289  and  _291
REMARK  118  A    between atoms: _291  and  _292
REMARK  119  A    between atoms: _291  and  _294
REMARK  120  A    between atoms: _294  and  _295
REMARK  121  A    between atoms: _295  and  _296
REMARK  122  A    between atoms: _296  and  _297
REMARK  123  A    between atoms: _306  and  _308
REMARK  124  A    between atoms: _308  and  _309
REMARK  125  A    between atoms: _308  and  _311
REMARK  126  A    between atoms: _314  and  _316
REMARK  127  A    between atoms: _316  and  _317
REMARK  128  A    between atoms: _316  and  _319
REMARK  129  A    between atoms: _319  and  _320
REMARK  130  A    between atoms: _323  and  _325
REMARK  131  A    between atoms: _325  and  _326
REMARK  132  A    between atoms: _325  and  _328
REMARK  133  A    between atoms: _328  and  _329
REMARK  134  A    between atoms: _332  and  _334
REMARK  135  A    between atoms: _334  and  _335
REMARK  136  A    between atoms: _334  and  _337
REMARK  137  A    between atoms: _337  and  _338
REMARK  138  A    between atoms: _338  and  _339
REMARK  139  A    between atoms: _339  and  _340
REMARK  140  A    between atoms: _349  and  _351
REMARK  141  A    between atoms: _351  and  _352
REMARK  142  A    between atoms: _351  and  _354
REMARK  143  A    between atoms: _354  and  _355
REMARK  144  A    between atoms: _358  and  _360
REMARK  145  A    between atoms: _360  and  _361
REMARK  146  A    between atoms: _360  and  _363
REMARK  147  A    between atoms: _363  and  _364
REMARK  148  A    between atoms: _367  and  _369
REMARK  149  A    between atoms: _369  and  _370
REMARK  150  A    between atoms: _369  and  _372
REMARK  151  A    between atoms: _372  and  _373
REMARK  152  A    between atoms: _378  and  _379
REMARK  153  A    between atoms: _381  and  _383
REMARK  154  A    between atoms: _383  and  _384
REMARK  155  A    between atoms: _383  and  _386
REMARK  156  A    between atoms: _386  and  _387
REMARK  157  A    between atoms: _392  and  _393
REMARK  158  A    between atoms: _395  and  _397
REMARK  159  A    between atoms: _397  and  _398
REMARK  160  A    between atoms: _397  and  _400
REMARK  161  A    between atoms: _400  and  _401
REMARK  162  A    between atoms: _404  and  _406
REMARK  163  A    between atoms: _406  and  _407
REMARK  164  A    between atoms: _406  and  _409
REMARK  165  A    between atoms: _409  and  _410
REMARK  166  A    between atoms: _410  and  _411
REMARK  167  A    between atoms: _416  and  _418
REMARK  168  A    between atoms: _418  and  _419
REMARK  169  A    between atoms: _418  and  _421
REMARK  170  A    between atoms: _424  and  _426
REMARK  171  A    between atoms: _426  and  _427
REMARK  172  A    between atoms: _426  and  _429
REMARK  173  A    between atoms: _429  and  _430
REMARK  174  A    between atoms: _433  and  _435
REMARK  175  A    between atoms: _435  and  _436
REMARK  176  A    between atoms: _435  and  _438
REMARK  177  A    between atoms: _438  and  _439
REMARK  178  A    between atoms: _441  and  _443
REMARK  179  A    between atoms: _443  and  _444
REMARK  180  A    between atoms: _446  and  _448
REMARK  181  A    between atoms: _448  and  _449
REMARK  182  A    between atoms: _448  and  _451
REMARK  183  A    between atoms: _451  and  _452
REMARK  184  A    between atoms: _452  and  _753
REMARK  185  A    between atoms: _453  and  _455
REMARK  186  A    between atoms: _455  and  _456
REMARK  187  A    between atoms: _455  and  _458
REMARK  188  A    between atoms: _458  and  _459
REMARK  189  A    between atoms: _464  and  _465
REMARK  190  A    between atoms: _467  and  _469
REMARK  191  A    between atoms: _469  and  _470
REMARK  192  A    between atoms: _469  and  _472
REMARK  193  A    between atoms: _472  and  _473
REMARK  194  A    between atoms: _473  and  _474
REMARK  195  A    between atoms: _479  and  _481
REMARK  196  A    between atoms: _481  and  _482
REMARK  197  A    between atoms: _481  and  _484
REMARK  198  A    between atoms: _484  and  _485
REMARK  199  A    between atoms: _485  and  _486
REMARK  200  A    between atoms: _491  and  _493
REMARK  201  A    between atoms: _493  and  _494
REMARK  202  A    between atoms: _493  and  _496
REMARK  203  A    between atoms: _496  and  _497
REMARK  204  A    between atoms: _502  and  _503
REMARK  205  A    between atoms: _505  and  _507
REMARK  206  A    between atoms: _507  and  _508
REMARK  207  A    between atoms: _511  and  _513
REMARK  208  A    between atoms: _513  and  _514
REMARK  209  A    between atoms: _513  and  _516
REMARK  210  A    between atoms: _516  and  _517
REMARK  211  A    between atoms: _522  and  _523
REMARK  212  A    between atoms: _525  and  _527
REMARK  213  A    between atoms: _527  and  _528
REMARK  214  A    between atoms: _527  and  _530
REMARK  215  A    between atoms: _530  and  _531
REMARK  216  A    between atoms: _536  and  _537
REMARK  217  A    between atoms: _539  and  _541
REMARK  218  A    between atoms: _541  and  _542
REMARK  219  A    between atoms: _541  and  _544
REMARK  220  A    between atoms: _544  and  _545
REMARK  221  A    between atoms: _548  and  _550
REMARK  222  A    between atoms: _550  and  _551
REMARK  223  A    between atoms: _554  and  _556
REMARK  224  A    between atoms: _556  and  _557
REMARK  225  A    between atoms: _560  and  _562
REMARK  226  A    between atoms: _562  and  _563
REMARK  227  A    between atoms: _562  and  _565
REMARK  228  A    between atoms: _565  and  _566
REMARK  229  A    between atoms: _569  and  _571
REMARK  230  A    between atoms: _571  and  _572
REMARK  231  A    between atoms: _571  and  _574
REMARK  232  A    between atoms: _574  and  _575
REMARK  233  A    between atoms: _578  and  _580
REMARK  234  A    between atoms: _580  and  _581
REMARK  235  A    between atoms: _580  and  _583
REMARK  236  A    between atoms: _583  and  _584
REMARK  237  A    between atoms: _587  and  _589
REMARK  238  A    between atoms: _589  and  _590
REMARK  239  A    between atoms: _589  and  _592
REMARK  240  A    between atoms: _592  and  _593
REMARK  241  A    between atoms: _593  and  _594
REMARK  242  A    between atoms: _594  and  _595
REMARK  243  A    between atoms: _595  and  _596
REMARK  244  A    between atoms: _600  and  _602
REMARK  245  A    between atoms: _602  and  _603
REMARK  246  A    between atoms: _602  and  _605
REMARK  247  A    between atoms: _605  and  _606
REMARK  248  A    between atoms: _611  and  _613
REMARK  249  A    between atoms: _613  and  _614
REMARK  250  A    between atoms: _613  and  _616
REMARK  251  A    between atoms: _616  and  _617
REMARK  252  A    between atoms: _617  and  _618
REMARK  253  A    between atoms: _618  and  _619
REMARK  254  A    between atoms: _619  and  _620
REMARK  255  A    between atoms: _624  and  _626
REMARK  256  A    between atoms: _626  and  _627
REMARK  257  A    between atoms: _626  and  _629
REMARK  258  A    between atoms: _629  and  _630
REMARK  259  A    between atoms: _640  and  _642
REMARK  260  A    between atoms: _642  and  _643
REMARK  261  A    between atoms: _646  and  _648
REMARK  262  A    between atoms: _648  and  _649
REMARK  263  A    between atoms: _648  and  _651
REMARK  264  A    between atoms: _651  and  _652
REMARK  265  A    between atoms: _652  and  _653
REMARK  266  A    between atoms: _656  and  _658
REMARK  267  A    between atoms: _658  and  _659
REMARK  268  A    between atoms: _658  and  _661
REMARK  269  A    between atoms: _661  and  _662
REMARK  270  A    between atoms: _662  and  _663
REMARK  271  A    between atoms: _666  and  _668
REMARK  272  A    between atoms: _668  and  _669
REMARK  273  A    between atoms: _668  and  _671
REMARK  274  A    between atoms: _671  and  _672
REMARK  275  A    between atoms: _672  and  _673
REMARK  276  A    between atoms: _673  and  _674
REMARK  277  A    between atoms: _683  and  _685
REMARK  278  A    between atoms: _685  and  _686
REMARK  279  A    between atoms: _685  and  _688
REMARK  280  A    between atoms: _688  and  _689
REMARK  281  A    between atoms: _692  and  _694
REMARK  282  A    between atoms: _694  and  _695
REMARK  283  A    between atoms: _694  and  _697
REMARK  284  A    between atoms: _697  and  _698
REMARK  285  A    between atoms: _698  and  _699
REMARK  286  A    between atoms: _699  and  _700
REMARK  287  A    between atoms: _709  and  _711
REMARK  288  A    between atoms: _711  and  _712
REMARK  289  A    between atoms: _715  and  _717
REMARK  290  A    between atoms: _717  and  _718
REMARK  291  A    between atoms: _717  and  _720
REMARK  292  A    between atoms: _720  and  _721
REMARK  293  A    between atoms: _726  and  _727
REMARK  294  A    between atoms: _729  and  _731
REMARK  295  A    between atoms: _731  and  _732
REMARK  296  A    between atoms: _731  and  _734
REMARK  297  A    between atoms: _734  and  _735
REMARK  298  A    between atoms: _738  and  _740
REMARK  299  A    between atoms: _740  and  _741
REMARK  300  A    between atoms: _740  and  _743
REMARK  301  A    between atoms: _743  and  _744
REMARK  302  A    between atoms: _747  and  _749
REMARK  303  A    between atoms: _749  and  _750
REMARK  304  A    between atoms: _749  and  _752
REMARK  305  A    between atoms: _752  and  _753
REMARK  306  A    between atoms: _754  and  _756
REMARK  307  A    between atoms: _756  and  _757
REMARK  308  A    between atoms: _756  and  _759
REMARK  309  A    between atoms: _762  and  _764
REMARK  310  A    between atoms: _764  and  _765
REMARK  311  A    between atoms: _764  and  _767
REMARK  312  A    between atoms: _767  and  _768
REMARK  313  A    between atoms: _768  and  _769
REMARK  314  A    between atoms: _772  and  _774
REMARK  315  A    between atoms: _774  and  _775
REMARK  316  A    between atoms: _774  and  _777
REMARK  317  A    between atoms: _777  and  _778
REMARK  318  A    between atoms: _788  and  _790
REMARK  319  A    between atoms: _790  and  _791
REMARK  320  A    between atoms: _790  and  _793
REMARK  321  A    between atoms: _793  and  _794
REMARK  322  A    between atoms: _797  and  _799
REMARK  323  A    between atoms: _799  and  _800
REMARK  324  A    between atoms: _799  and  _802
REMARK  325  A    between atoms: _802  and  _803
REMARK  326  A    between atoms: _808  and  _809
REMARK                            x       y       z     vdW  Elec       q    Type
REMARK                         _______ _______ _______ _____ _____    ______ ____
ROOT
ATOM      1  O   HOH     1      -7.937   9.781  -8.495  0.00  0.00    +0.000 OA
ENDROOT
TORSDOF 0
REMARK  Name = ../refined-set-2016/3p9m/3p9m_pocket.pdb
REMARK  326 active torsions:
REMARK  status: ('A' for Active; 'I' for Inactive)
REMARK    1  A    between atoms: _1  and  _3
REMARK    2  A    between atoms: _3  and  _4
REMARK    3  A    between atoms: _3  and  _6
REMARK    4  A    between atoms: _6  and  _7
REMARK    5  A    between atoms: _10  and  _12
REMARK    6  A    between atoms: _12  and  _13
REMARK    7  A    between atoms: _12  and  _15
REMARK    8  A    between atoms: _15  and  _16
REMARK    9  A    between atoms: _16  and  _17
REMARK   10  A    between atoms: _17  and  _18
REMARK   11  A    between atoms: _27  and  _29
REMARK   12  A    between atoms: _29  and  _30
REMARK   13  A    between atoms: _29  and  _32
REMARK   14  A    between atoms: _32  and  _33
REMARK   15  A    between atoms: _38  and  _39
REMARK   16  A    between atoms: _41  and  _43
REMARK   17  A    between atoms: _43  and  _44
REMARK   18  A    between atoms: _43  and  _46
REMARK   19  A    between atoms: _46  and  _47
REMARK   20  A    between atoms: _53  and  _55
REMARK   21  A    between atoms: _55  and  _56
REMARK   22  A    between atoms: _55  and  _58
REMARK   23  A    between atoms: _61  and  _63
REMARK   24  A    between atoms: _63  and  _64
REMARK   25  A    between atoms: _63  and  _66
REMARK   26  A    between atoms: _66  and  _67
REMARK   27  A    between atoms: _70  and  _72
REMARK   28  A    between atoms: _72  and  _73
REMARK   29  A    between atoms: _72  and  _75
REMARK   30  A    between atoms: _75  and  _76
REMARK   31  A    between atoms: _81  and  _82
REMARK   32  A    between atoms: _84  and  _86
REMARK   33  A    between atoms: _86  and  _87
REMARK   34  A    between atoms: _86  and  _89
REMARK   35  A    between atoms: _89  and  _90
REMARK   36  A    between atoms: _90  and  _91
REMARK   37  A    between atoms: _93  and  _95
REMARK   38  A    between atoms: _95  and  _96
REMARK   39  A    between atoms: _95  and  _98
REMARK   40  A    between atoms: _98  and  _99
REMARK   41  A    between atoms: _99  and  _100
REMARK   42  A    between atoms: _103  and  _105
REMARK   43  A    between atoms: _105  and  _106
REMARK   44  A    between atoms: _105  and  _108
REMARK   45  A    between atoms: _111  and  _113
REMARK   46  A    between atoms: _113  and  _114
REMARK   47  A    between atoms: _116  and  _118
REMARK   48  A    between atoms: _118  and  _119
REMARK   49  A    between atoms: _118  and  _121
REMARK   50  A    between atoms: _121  and  _122
REMARK   51  A    between atoms: _128  and  _130
REMARK   52  A    between atoms: _130  and  _131
REMARK   53  A    between atoms: _130  and  _133
REMARK   54  A    between atoms: _136  and  _138
REMARK   55  A    between atoms: _138  and  _139
REMARK   56  A    between atoms: _138  and  _141
REMARK   57  A    between atoms: _141  and  _142
REMARK   58  A    between atoms: _148  and  _150
REMARK   59  A    between atoms: _150  and  _151
REMARK   60  A    between atoms: _150  and  _153
REMARK   61  A    between atoms: _153  and  _154
REMARK   62  A    between atoms: _159  and  _160
REMARK   63  A    between atoms: _162  and  _164
REMARK   64  A    between atoms: _164  and  _165
REMARK   65  A    between atoms: _164  and  _167
REMARK   66  A    between atoms: _167  and  _168
REMARK   67  A    between atoms: _168  and  _169
REMARK   68  A    between atoms: _171  and  _173
REMARK   69  A    between atoms: _173  and  _174
REMARK   70  A    between atoms: _173  and  _176
REMARK   71  A    between atoms: _176  and  _177
REMARK   72  A    between atoms: _182  and  _183
REMARK   73  A    between atoms: _185  and  _187
REMARK   74  A    between atoms: _187  and  _188
REMARK   75  A    between atoms: _187  and  _190
REMARK   76  A    between atoms: _190  and  _191
REMARK   77  A    between atoms: _191  and  _192
REMARK   78  A    between atoms: _192  and  _193
REMARK   79  A    between atoms: _202  and  _204
REMARK   80  A    between atoms: _204  and  _205
REMARK   81  A    between atoms: _204  and  _207
REMARK   82  A    between atoms: _207  and  _208
REMARK   83  A    between atoms: _208  and  _209
REMARK   84  A    between atoms: _212  and  _214
REMARK   85  A    between atoms: _214  and  _215
REMARK   86  A    between atoms: _214  and  _217
REMARK   87  A    between atoms: _217  and  _218
REMARK   88  A    between atoms: _218  and  _219
REMARK   89  A    between atoms: _219  and  _220
REMARK   90  A    between atoms: _220  and  _221
REMARK   91  A    between atoms: _225  and  _227
REMARK   92  A    between atoms: _227  and  _228
REMARK   93  A    between atoms: _231  and  _233
REMARK   94  A    between atoms: _233  and  _234
REMARK   95  A    between atoms: _236  and  _238
REMARK   96  A    between atoms: _238  and  _239
REMARK   97  A    between atoms: _238  and  _241
REMARK   98  A    between atoms: _241  and  _242
REMARK   99  A    between atoms: _247  and  _249
REMARK  100  A    between atoms: _249  and  _250
REMARK  101  A    between atoms: _249  and  _252
REMARK  102  A    between atoms: _252  and  _253
REMARK  103  A    between atoms: _253  and  _254
REMARK  104  A    between atoms: _257  and  _259
REMARK  105  A    between atoms: _259  and  _260
REMARK  106  A    between atoms: _259  and  _262
REMARK  107  A    between atoms: _262  and  _263
REMARK  108  A    between atoms: _263  and  _264
REMARK  109  A    between atoms: _269  and  _271
REMARK  110  A    between atoms: _271  and  _272
REMARK  111  A    between atoms: _271  and  _274
REMARK  112  A    between atoms: _274  and  _275
REMARK  113  A    between atoms: _277  and  _279
REMARK  114  A    between atoms: _279  and  _280
REMARK  115  A    between atoms: _279  and  _282
REMARK  116  A    between atoms: _282  and  _283
REMARK  117  A    between atoms: _289  and  _291
REMARK  118  A    between atoms: _291  and  _292
REMARK  119  A    between atoms: _291  and  _294
REMARK  120  A    between atoms: _294  and  _295
REMARK  121  A    between atoms: _295  and  _296
REMARK  122  A    between atoms: _296  and  _297
REMARK  123  A    between atoms: _306  and  _308
REMARK  124  A    between atoms: _308  and  _309
REMARK  125  A    between atoms: _308  and  _311
REMARK  126  A    between atoms: _314  and  _316
REMARK  127  A    between atoms: _316  and  _317
REMARK  128  A    between atoms: _316  and  _319
REMARK  129  A    between atoms: _319  and  _320
REMARK  130  A    between atoms: _323  and  _325
REMARK  131  A    between atoms: _325  and  _326
REMARK  132  A    between atoms: _325  and  _328
REMARK  133  A    between atoms: _328  and  _329
REMARK  134  A    between atoms: _332  and  _334
REMARK  135  A    between atoms: _334  and  _335
REMARK  136  A    between atoms: _334  and  _337
REMARK  137  A    between atoms: _337  and  _338
REMARK  138  A    between atoms: _338  and  _339
REMARK  139  A    between atoms: _339  and  _340
REMARK  140  A    between atoms: _349  and  _351
REMARK  141  A    between atoms: _351  and  _352
REMARK  142  A    between atoms: _351  and  _354
REMARK  143  A    between atoms: _354  and  _355
REMARK  144  A    between atoms: _358  and  _360
REMARK  145  A    between atoms: _360  and  _361
REMARK  146  A    between atoms: _360  and  _363
REMARK  147  A    between atoms: _363  and  _364
REMARK  148  A    between atoms: _367  and  _369
REMARK  149  A    between atoms: _369  and  _370
REMARK  150  A    between atoms: _369  and  _372
REMARK  151  A    between atoms: _372  and  _373
REMARK  152  A    between atoms: _378  and  _379
REMARK  153  A    between atoms: _381  and  _383
REMARK  154  A    between atoms: _383  and  _384
REMARK  155  A    between atoms: _383  and  _386
REMARK  156  A    between atoms: _386  and  _387
REMARK  157  A    between atoms: _392  and  _393
REMARK  158  A    between atoms: _395  and  _397
REMARK  159  A    between atoms: _397  and  _398
REMARK  160  A    between atoms: _397  and  _400
REMARK  161  A    between atoms: _400  and  _401
REMARK  162  A    between atoms: _404  and  _406
REMARK  163  A    between atoms: _406  and  _407
REMARK  164  A    between atoms: _406  and  _409
REMARK  165  A    between atoms: _409  and  _410
REMARK  166  A    between atoms: _410  and  _411
REMARK  167  A    between atoms: _416  and  _418
REMARK  168  A    between atoms: _418  and  _419
REMARK  169  A    between atoms: _418  and  _421
REMARK  170  A    between atoms: _424  and  _426
REMARK  171  A    between atoms: _426  and  _427
REMARK  172  A    between atoms: _426  and  _429
REMARK  173  A    between atoms: _429  and  _430
REMARK  174  A    between atoms: _433  and  _435
REMARK  175  A    between atoms: _435  and  _436
REMARK  176  A    between atoms: _435  and  _438
REMARK  177  A    between atoms: _438  and  _439
REMARK  178  A    between atoms: _441  and  _443
REMARK  179  A    between atoms: _443  and  _444
REMARK  180  A    between atoms: _446  and  _448
REMARK  181  A    between atoms: _448  and  _449
REMARK  182  A    between atoms: _448  and  _451
REMARK  183  A    between atoms: _451  and  _452
REMARK  184  A    between atoms: _452  and  _753
REMARK  185  A    between atoms: _453  and  _455
REMARK  186  A    between atoms: _455  and  _456
REMARK  187  A    between atoms: _455  and  _458
REMARK  188  A    between atoms: _458  and  _459
REMARK  189  A    between atoms: _464  and  _465
REMARK  190  A    between atoms: _467  and  _469
REMARK  191  A    between atoms: _469  and  _470
REMARK  192  A    between atoms: _469  and  _472
REMARK  193  A    between atoms: _472  and  _473
REMARK  194  A    between atoms: _473  and  _474
REMARK  195  A    between atoms: _479  and  _481
REMARK  196  A    between atoms: _481  and  _482
REMARK  197  A    between atoms: _481  and  _484
REMARK  198  A    between atoms: _484  and  _485
REMARK  199  A    between atoms: _485  and  _486
REMARK  200  A    between atoms: _491  and  _493
REMARK  201  A    between atoms: _493  and  _494
REMARK  202  A    between atoms: _493  and  _496
REMARK  203  A    between atoms: _496  and  _497
REMARK  204  A    between atoms: _502  and  _503
REMARK  205  A    between atoms: _505  and  _507
REMARK  206  A    between atoms: _507  and  _508
REMARK  207  A    between atoms: _511  and  _513
REMARK  208  A    between atoms: _513  and  _514
REMARK  209  A    between atoms: _513  and  _516
REMARK  210  A    between atoms: _516  and  _517
REMARK  211  A    between atoms: _522  and  _523
REMARK  212  A    between atoms: _525  and  _527
REMARK  213  A    between atoms: _527  and  _528
REMARK  214  A    between atoms: _527  and  _530
REMARK  215  A    between atoms: _530  and  _531
REMARK  216  A    between atoms: _536  and  _537
REMARK  217  A    between atoms: _539  and  _541
REMARK  218  A    between atoms: _541  and  _542
REMARK  219  A    between atoms: _541  and  _544
REMARK  220  A    between atoms: _544  and  _545
REMARK  221  A    between atoms: _548  and  _550
REMARK  222  A    between atoms: _550  and  _551
REMARK  223  A    between atoms: _554  and  _556
REMARK  224  A    between atoms: _556  and  _557
REMARK  225  A    between atoms: _560  and  _562
REMARK  226  A    between atoms: _562  and  _563
REMARK  227  A    between atoms: _562  and  _565
REMARK  228  A    between atoms: _565  and  _566
REMARK  229  A    between atoms: _569  and  _571
REMARK  230  A    between atoms: _571  and  _572
REMARK  231  A    between atoms: _571  and  _574
REMARK  232  A    between atoms: _574  and  _575
REMARK  233  A    between atoms: _578  and  _580
REMARK  234  A    between atoms: _580  and  _581
REMARK  235  A    between atoms: _580  and  _583
REMARK  236  A    between atoms: _583  and  _584
REMARK  237  A    between atoms: _587  and  _589
REMARK  238  A    between atoms: _589  and  _590
REMARK  239  A    between atoms: _589  and  _592
REMARK  240  A    between atoms: _592  and  _593
REMARK  241  A    between atoms: _593  and  _594
REMARK  242  A    between atoms: _594  and  _595
REMARK  243  A    between atoms: _595  and  _596
REMARK  244  A    between atoms: _600  and  _602
REMARK  245  A    between atoms: _602  and  _603
REMARK  246  A    between atoms: _602  and  _605
REMARK  247  A    between atoms: _605  and  _606
REMARK  248  A    between atoms: _611  and  _613
REMARK  249  A    between atoms: _613  and  _614
REMARK  250  A    between atoms: _613  and  _616
REMARK  251  A    between atoms: _616  and  _617
REMARK  252  A    between atoms: _617  and  _618
REMARK  253  A    between atoms: _618  and  _619
REMARK  254  A    between atoms: _619  and  _620
REMARK  255  A    between atoms: _624  and  _626
REMARK  256  A    between atoms: _626  and  _627
REMARK  257  A    between atoms: _626  and  _629
REMARK  258  A    between atoms: _629  and  _630
REMARK  259  A    between atoms: _640  and  _642
REMARK  260  A    between atoms: _642  and  _643
REMARK  261  A    between atoms: _646  and  _648
REMARK  262  A    between atoms: _648  and  _649
REMARK  263  A    between atoms: _648  and  _651
REMARK  264  A    between atoms: _651  and  _652
REMARK  265  A    between atoms: _652  and  _653
REMARK  266  A    between atoms: _656  and  _658
REMARK  267  A    between atoms: _658  and  _659
REMARK  268  A    between atoms: _658  and  _661
REMARK  269  A    between atoms: _661  and  _662
REMARK  270  A    between atoms: _662  and  _663
REMARK  271  A    between atoms: _666  and  _668
REMARK  272  A    between atoms: _668  and  _669
REMARK  273  A    between atoms: _668  and  _671
REMARK  274  A    between atoms: _671  and  _672
REMARK  275  A    between atoms: _672  and  _673
REMARK  276  A    between atoms: _673  and  _674
REMARK  277  A    between atoms: _683  and  _685
REMARK  278  A    between atoms: _685  and  _686
REMARK  279  A    between atoms: _685  and  _688
REMARK  280  A    between atoms: _688  and  _689
REMARK  281  A    between atoms: _692  and  _694
REMARK  282  A    between atoms: _694  and  _695
REMARK  283  A    between atoms: _694  and  _697
REMARK  284  A    between atoms: _697  and  _698
REMARK  285  A    between atoms: _698  and  _699
REMARK  286  A    between atoms: _699  and  _700
REMARK  287  A    between atoms: _709  and  _711
REMARK  288  A    between atoms: _711  and  _712
REMARK  289  A    between atoms: _715  and  _717
REMARK  290  A    between atoms: _717  and  _718
REMARK  291  A    between atoms: _717  and  _720
REMARK  292  A    between atoms: _720  and  _721
REMARK  293  A    between atoms: _726  and  _727
REMARK  294  A    between atoms: _729  and  _731
REMARK  295  A    between atoms: _731  and  _732
REMARK  296  A    between atoms: _731  and  _734
REMARK  297  A    between atoms: _734  and  _735
REMARK  298  A    between atoms: _738  and  _740
REMARK  299  A    between atoms: _740  and  _741
REMARK  300  A    between atoms: _740  and  _743
REMARK  301  A    between atoms: _743  and  _744
REMARK  302  A    between atoms: _747  and  _749
REMARK  303  A    between atoms: _749  and  _750
REMARK  304  A    between atoms: _749  and  _752
REMARK  305  A    between atoms: _752  and  _753
REMARK  306  A    between atoms: _754  and  _756
REMARK  307  A    between atoms: _756  and  _757
REMARK  308  A    between atoms: _756  and  _759
REMARK  309  A    between atoms: _762  and  _764
REMARK  310  A    between atoms: _764  and  _765
REMARK  311  A    between atoms: _764  and  _767
REMARK  312  A    between atoms: _767  and  _768
REMARK  313  A    between atoms: _768  and  _769
REMARK  314  A    between atoms: _772  and  _774
REMARK  315  A    between atoms: _774  and  _775
REMARK  316  A    between atoms: _774  and  _777
REMARK  317  A    between atoms: _777  and  _778
REMARK  318  A    between atoms: _788  and  _790
REMARK  319  A    between atoms: _790  and  _791
REMARK  320  A    between atoms: _790  and  _793
REMARK  321  A    between atoms: _793  and  _794
REMARK  322  A    between atoms: _797  and  _799
REMARK  323  A    between atoms: _799  and  _800
REMARK  324  A    between atoms: _799  and  _802
REMARK  325  A    between atoms: _802  and  _803
REMARK  326  A    between atoms: _808  and  _809
REMARK                            x       y       z     vdW  Elec       q    Type
REMARK                         _______ _______ _______ _____ _____    ______ ____
ROOT
ATOM      1  O   HOH     1      -8.400  -2.908  -6.770  0.00  0.00    +0.000 OA
ENDROOT
TORSDOF 0
REMARK  Name = ../refined-set-2016/3p9m/3p9m_pocket.pdb
REMARK  326 active torsions:
REMARK  status: ('A' for Active; 'I' for Inactive)
REMARK    1  A    between atoms: _1  and  _3
REMARK    2  A    between atoms: _3  and  _4
REMARK    3  A    between atoms: _3  and  _6
REMARK    4  A    between atoms: _6  and  _7
REMARK    5  A    between atoms: _10  and  _12
REMARK    6  A    between atoms: _12  and  _13
REMARK    7  A    between atoms: _12  and  _15
REMARK    8  A    between atoms: _15  and  _16
REMARK    9  A    between atoms: _16  and  _17
REMARK   10  A    between atoms: _17  and  _18
REMARK   11  A    between atoms: _27  and  _29
REMARK   12  A    between atoms: _29  and  _30
REMARK   13  A    between atoms: _29  and  _32
REMARK   14  A    between atoms: _32  and  _33
REMARK   15  A    between atoms: _38  and  _39
REMARK   16  A    between atoms: _41  and  _43
REMARK   17  A    between atoms: _43  and  _44
REMARK   18  A    between atoms: _43  and  _46
REMARK   19  A    between atoms: _46  and  _47
REMARK   20  A    between atoms: _53  and  _55
REMARK   21  A    between atoms: _55  and  _56
REMARK   22  A    between atoms: _55  and  _58
REMARK   23  A    between atoms: _61  and  _63
REMARK   24  A    between atoms: _63  and  _64
REMARK   25  A    between atoms: _63  and  _66
REMARK   26  A    between atoms: _66  and  _67
REMARK   27  A    between atoms: _70  and  _72
REMARK   28  A    between atoms: _72  and  _73
REMARK   29  A    between atoms: _72  and  _75
REMARK   30  A    between atoms: _75  and  _76
REMARK   31  A    between atoms: _81  and  _82
REMARK   32  A    between atoms: _84  and  _86
REMARK   33  A    between atoms: _86  and  _87
REMARK   34  A    between atoms: _86  and  _89
REMARK   35  A    between atoms: _89  and  _90
REMARK   36  A    between atoms: _90  and  _91
REMARK   37  A    between atoms: _93  and  _95
REMARK   38  A    between atoms: _95  and  _96
REMARK   39  A    between atoms: _95  and  _98
REMARK   40  A    between atoms: _98  and  _99
REMARK   41  A    between atoms: _99  and  _100
REMARK   42  A    between atoms: _103  and  _105
REMARK   43  A    between atoms: _105  and  _106
REMARK   44  A    between atoms: _105  and  _108
REMARK   45  A    between atoms: _111  and  _113
REMARK   46  A    between atoms: _113  and  _114
REMARK   47  A    between atoms: _116  and  _118
REMARK   48  A    between atoms: _118  and  _119
REMARK   49  A    between atoms: _118  and  _121
REMARK   50  A    between atoms: _121  and  _122
REMARK   51  A    between atoms: _128  and  _130
REMARK   52  A    between atoms: _130  and  _131
REMARK   53  A    between atoms: _130  and  _133
REMARK   54  A    between atoms: _136  and  _138
REMARK   55  A    between atoms: _138  and  _139
REMARK   56  A    between atoms: _138  and  _141
REMARK   57  A    between atoms: _141  and  _142
REMARK   58  A    between atoms: _148  and  _150
REMARK   59  A    between atoms: _150  and  _151
REMARK   60  A    between atoms: _150  and  _153
REMARK   61  A    between atoms: _153  and  _154
REMARK   62  A    between atoms: _159  and  _160
REMARK   63  A    between atoms: _162  and  _164
REMARK   64  A    between atoms: _164  and  _165
REMARK   65  A    between atoms: _164  and  _167
REMARK   66  A    between atoms: _167  and  _168
REMARK   67  A    between atoms: _168  and  _169
REMARK   68  A    between atoms: _171  and  _173
REMARK   69  A    between atoms: _173  and  _174
REMARK   70  A    between atoms: _173  and  _176
REMARK   71  A    between atoms: _176  and  _177
REMARK   72  A    between atoms: _182  and  _183
REMARK   73  A    between atoms: _185  and  _187
REMARK   74  A    between atoms: _187  and  _188
REMARK   75  A    between atoms: _187  and  _190
REMARK   76  A    between atoms: _190  and  _191
REMARK   77  A    between atoms: _191  and  _192
REMARK   78  A    between atoms: _192  and  _193
REMARK   79  A    between atoms: _202  and  _204
REMARK   80  A    between atoms: _204  and  _205
REMARK   81  A    between atoms: _204  and  _207
REMARK   82  A    between atoms: _207  and  _208
REMARK   83  A    between atoms: _208  and  _209
REMARK   84  A    between atoms: _212  and  _214
REMARK   85  A    between atoms: _214  and  _215
REMARK   86  A    between atoms: _214  and  _217
REMARK   87  A    between atoms: _217  and  _218
REMARK   88  A    between atoms: _218  and  _219
REMARK   89  A    between atoms: _219  and  _220
REMARK   90  A    between atoms: _220  and  _221
REMARK   91  A    between atoms: _225  and  _227
REMARK   92  A    between atoms: _227  and  _228
REMARK   93  A    between atoms: _231  and  _233
REMARK   94  A    between atoms: _233  and  _234
REMARK   95  A    between atoms: _236  and  _238
REMARK   96  A    between atoms: _238  and  _239
REMARK   97  A    between atoms: _238  and  _241
REMARK   98  A    between atoms: _241  and  _242
REMARK   99  A    between atoms: _247  and  _249
REMARK  100  A    between atoms: _249  and  _250
REMARK  101  A    between atoms: _249  and  _252
REMARK  102  A    between atoms: _252  and  _253
REMARK  103  A    between atoms: _253  and  _254
REMARK  104  A    between atoms: _257  and  _259
REMARK  105  A    between atoms: _259  and  _260
REMARK  106  A    between atoms: _259  and  _262
REMARK  107  A    between atoms: _262  and  _263
REMARK  108  A    between atoms: _263  and  _264
REMARK  109  A    between atoms: _269  and  _271
REMARK  110  A    between atoms: _271  and  _272
REMARK  111  A    between atoms: _271  and  _274
REMARK  112  A    between atoms: _274  and  _275
REMARK  113  A    between atoms: _277  and  _279
REMARK  114  A    between atoms: _279  and  _280
REMARK  115  A    between atoms: _279  and  _282
REMARK  116  A    between atoms: _282  and  _283
REMARK  117  A    between atoms: _289  and  _291
REMARK  118  A    between atoms: _291  and  _292
REMARK  119  A    between atoms: _291  and  _294
REMARK  120  A    between atoms: _294  and  _295
REMARK  121  A    between atoms: _295  and  _296
REMARK  122  A    between atoms: _296  and  _297
REMARK  123  A    between atoms: _306  and  _308
REMARK  124  A    between atoms: _308  and  _309
REMARK  125  A    between atoms: _308  and  _311
REMARK  126  A    between atoms: _314  and  _316
REMARK  127  A    between atoms: _316  and  _317
REMARK  128  A    between atoms: _316  and  _319
REMARK  129  A    between atoms: _319  and  _320
REMARK  130  A    between atoms: _323  and  _325
REMARK  131  A    between atoms: _325  and  _326
REMARK  132  A    between atoms: _325  and  _328
REMARK  133  A    between atoms: _328  and  _329
REMARK  134  A    between atoms: _332  and  _334
REMARK  135  A    between atoms: _334  and  _335
REMARK  136  A    between atoms: _334  and  _337
REMARK  137  A    between atoms: _337  and  _338
REMARK  138  A    between atoms: _338  and  _339
REMARK  139  A    between atoms: _339  and  _340
REMARK  140  A    between atoms: _349  and  _351
REMARK  141  A    between atoms: _351  and  _352
REMARK  142  A    between atoms: _351  and  _354
REMARK  143  A    between atoms: _354  and  _355
REMARK  144  A    between atoms: _358  and  _360
REMARK  145  A    between atoms: _360  and  _361
REMARK  146  A    between atoms: _360  and  _363
REMARK  147  A    between atoms: _363  and  _364
REMARK  148  A    between atoms: _367  and  _369
REMARK  149  A    between atoms: _369  and  _370
REMARK  150  A    between atoms: _369  and  _372
REMARK  151  A    between atoms: _372  and  _373
REMARK  152  A    between atoms: _378  and  _379
REMARK  153  A    between atoms: _381  and  _383
REMARK  154  A    between atoms: _383  and  _384
REMARK  155  A    between atoms: _383  and  _386
REMARK  156  A    between atoms: _386  and  _387
REMARK  157  A    between atoms: _392  and  _393
REMARK  158  A    between atoms: _395  and  _397
REMARK  159  A    between atoms: _397  and  _398
REMARK  160  A    between atoms: _397  and  _400
REMARK  161  A    between atoms: _400  and  _401
REMARK  162  A    between atoms: _404  and  _406
REMARK  163  A    between atoms: _406  and  _407
REMARK  164  A    between atoms: _406  and  _409
REMARK  165  A    between atoms: _409  and  _410
REMARK  166  A    between atoms: _410  and  _411
REMARK  167  A    between atoms: _416  and  _418
REMARK  168  A    between atoms: _418  and  _419
REMARK  169  A    between atoms: _418  and  _421
REMARK  170  A    between atoms: _424  and  _426
REMARK  171  A    between atoms: _426  and  _427
REMARK  172  A    between atoms: _426  and  _429
REMARK  173  A    between atoms: _429  and  _430
REMARK  174  A    between atoms: _433  and  _435
REMARK  175  A    between atoms: _435  and  _436
REMARK  176  A    between atoms: _435  and  _438
REMARK  177  A    between atoms: _438  and  _439
REMARK  178  A    between atoms: _441  and  _443
REMARK  179  A    between atoms: _443  and  _444
REMARK  180  A    between atoms: _446  and  _448
REMARK  181  A    between atoms: _448  and  _449
REMARK  182  A    between atoms: _448  and  _451
REMARK  183  A    between atoms: _451  and  _452
REMARK  184  A    between atoms: _452  and  _753
REMARK  185  A    between atoms: _453  and  _455
REMARK  186  A    between atoms: _455  and  _456
REMARK  187  A    between atoms: _455  and  _458
REMARK  188  A    between atoms: _458  and  _459
REMARK  189  A    between atoms: _464  and  _465
REMARK  190  A    between atoms: _467  and  _469
REMARK  191  A    between atoms: _469  and  _470
REMARK  192  A    between atoms: _469  and  _472
REMARK  193  A    between atoms: _472  and  _473
REMARK  194  A    between atoms: _473  and  _474
REMARK  195  A    between atoms: _479  and  _481
REMARK  196  A    between atoms: _481  and  _482
REMARK  197  A    between atoms: _481  and  _484
REMARK  198  A    between atoms: _484  and  _485
REMARK  199  A    between atoms: _485  and  _486
REMARK  200  A    between atoms: _491  and  _493
REMARK  201  A    between atoms: _493  and  _494
REMARK  202  A    between atoms: _493  and  _496
REMARK  203  A    between atoms: _496  and  _497
REMARK  204  A    between atoms: _502  and  _503
REMARK  205  A    between atoms: _505  and  _507
REMARK  206  A    between atoms: _507  and  _508
REMARK  207  A    between atoms: _511  and  _513
REMARK  208  A    between atoms: _513  and  _514
REMARK  209  A    between atoms: _513  and  _516
REMARK  210  A    between atoms: _516  and  _517
REMARK  211  A    between atoms: _522  and  _523
REMARK  212  A    between atoms: _525  and  _527
REMARK  213  A    between atoms: _527  and  _528
REMARK  214  A    between atoms: _527  and  _530
REMARK  215  A    between atoms: _530  and  _531
REMARK  216  A    between atoms: _536  and  _537
REMARK  217  A    between atoms: _539  and  _541
REMARK  218  A    between atoms: _541  and  _542
REMARK  219  A    between atoms: _541  and  _544
REMARK  220  A    between atoms: _544  and  _545
REMARK  221  A    between atoms: _548  and  _550
REMARK  222  A    between atoms: _550  and  _551
REMARK  223  A    between atoms: _554  and  _556
REMARK  224  A    between atoms: _556  and  _557
REMARK  225  A    between atoms: _560  and  _562
REMARK  226  A    between atoms: _562  and  _563
REMARK  227  A    between atoms: _562  and  _565
REMARK  228  A    between atoms: _565  and  _566
REMARK  229  A    between atoms: _569  and  _571
REMARK  230  A    between atoms: _571  and  _572
REMARK  231  A    between atoms: _571  and  _574
REMARK  232  A    between atoms: _574  and  _575
REMARK  233  A    between atoms: _578  and  _580
REMARK  234  A    between atoms: _580  and  _581
REMARK  235  A    between atoms: _580  and  _583
REMARK  236  A    between atoms: _583  and  _584
REMARK  237  A    between atoms: _587  and  _589
REMARK  238  A    between atoms: _589  and  _590
REMARK  239  A    between atoms: _589  and  _592
REMARK  240  A    between atoms: _592  and  _593
REMARK  241  A    between atoms: _593  and  _594
REMARK  242  A    between atoms: _594  and  _595
REMARK  243  A    between atoms: _595  and  _596
REMARK  244  A    between atoms: _600  and  _602
REMARK  245  A    between atoms: _602  and  _603
REMARK  246  A    between atoms: _602  and  _605
REMARK  247  A    between atoms: _605  and  _606
REMARK  248  A    between atoms: _611  and  _613
REMARK  249  A    between atoms: _613  and  _614
REMARK  250  A    between atoms: _613  and  _616
REMARK  251  A    between atoms: _616  and  _617
REMARK  252  A    between atoms: _617  and  _618
REMARK  253  A    between atoms: _618  and  _619
REMARK  254  A    between atoms: _619  and  _620
REMARK  255  A    between atoms: _624  and  _626
REMARK  256  A    between atoms: _626  and  _627
REMARK  257  A    between atoms: _626  and  _629
REMARK  258  A    between atoms: _629  and  _630
REMARK  259  A    between atoms: _640  and  _642
REMARK  260  A    between atoms: _642  and  _643
REMARK  261  A    between atoms: _646  and  _648
REMARK  262  A    between atoms: _648  and  _649
REMARK  263  A    between atoms: _648  and  _651
REMARK  264  A    between atoms: _651  and  _652
REMARK  265  A    between atoms: _652  and  _653
REMARK  266  A    between atoms: _656  and  _658
REMARK  267  A    between atoms: _658  and  _659
REMARK  268  A    between atoms: _658  and  _661
REMARK  269  A    between atoms: _661  and  _662
REMARK  270  A    between atoms: _662  and  _663
REMARK  271  A    between atoms: _666  and  _668
REMARK  272  A    between atoms: _668  and  _669
REMARK  273  A    between atoms: _668  and  _671
REMARK  274  A    between atoms: _671  and  _672
REMARK  275  A    between atoms: _672  and  _673
REMARK  276  A    between atoms: _673  and  _674
REMARK  277  A    between atoms: _683  and  _685
REMARK  278  A    between atoms: _685  and  _686
REMARK  279  A    between atoms: _685  and  _688
REMARK  280  A    between atoms: _688  and  _689
REMARK  281  A    between atoms: _692  and  _694
REMARK  282  A    between atoms: _694  and  _695
REMARK  283  A    between atoms: _694  and  _697
REMARK  284  A    between atoms: _697  and  _698
REMARK  285  A    between atoms: _698  and  _699
REMARK  286  A    between atoms: _699  and  _700
REMARK  287  A    between atoms: _709  and  _711
REMARK  288  A    between atoms: _711  and  _712
REMARK  289  A    between atoms: _715  and  _717
REMARK  290  A    between atoms: _717  and  _718
REMARK  291  A    between atoms: _717  and  _720
REMARK  292  A    between atoms: _720  and  _721
REMARK  293  A    between atoms: _726  and  _727
REMARK  294  A    between atoms: _729  and  _731
REMARK  295  A    between atoms: _731  and  _732
REMARK  296  A    between atoms: _731  and  _734
REMARK  297  A    between atoms: _734  and  _735
REMARK  298  A    between atoms: _738  and  _740
REMARK  299  A    between atoms: _740  and  _741
REMARK  300  A    between atoms: _740  and  _743
REMARK  301  A    between atoms: _743  and  _744
REMARK  302  A    between atoms: _747  and  _749
REMARK  303  A    between atoms: _749  and  _750
REMARK  304  A    between atoms: _749  and  _752
REMARK  305  A    between atoms: _752  and  _753
REMARK  306  A    between atoms: _754  and  _756
REMARK  307  A    between atoms: _756  and  _757
REMARK  308  A    between atoms: _756  and  _759
REMARK  309  A    between atoms: _762  and  _764
REMARK  310  A    between atoms: _764  and  _765
REMARK  311  A    between atoms: _764  and  _767
REMARK  312  A    between atoms: _767  and  _768
REMARK  313  A    between atoms: _768  and  _769
REMARK  314  A    between atoms: _772  and  _774
REMARK  315  A    between atoms: _774  and  _775
REMARK  316  A    between atoms: _774  and  _777
REMARK  317  A    between atoms: _777  and  _778
REMARK  318  A    between atoms: _788  and  _790
REMARK  319  A    between atoms: _790  and  _791
REMARK  320  A    between atoms: _790  and  _793
REMARK  321  A    between atoms: _793  and  _794
REMARK  322  A    between atoms: _797  and  _799
REMARK  323  A    between atoms: _799  and  _800
REMARK  324  A    between atoms: _799  and  _802
REMARK  325  A    between atoms: _802  and  _803
REMARK  326  A    between atoms: _808  and  _809
REMARK                            x       y       z     vdW  Elec       q    Type
REMARK                         _______ _______ _______ _____ _____    ______ ____
ROOT
ATOM      1  O   HOH     1       0.814  -7.684   1.974  0.00  0.00    +0.000 OA
ENDROOT
TORSDOF 0
REMARK  Name = ../refined-set-2016/3p9m/3p9m_pocket.pdb
REMARK  326 active torsions:
REMARK  status: ('A' for Active; 'I' for Inactive)
REMARK    1  A    between atoms: _1  and  _3
REMARK    2  A    between atoms: _3  and  _4
REMARK    3  A    between atoms: _3  and  _6
REMARK    4  A    between atoms: _6  and  _7
REMARK    5  A    between atoms: _10  and  _12
REMARK    6  A    between atoms: _12  and  _13
REMARK    7  A    between atoms: _12  and  _15
REMARK    8  A    between atoms: _15  and  _16
REMARK    9  A    between atoms: _16  and  _17
REMARK   10  A    between atoms: _17  and  _18
REMARK   11  A    between atoms: _27  and  _29
REMARK   12  A    between atoms: _29  and  _30
REMARK   13  A    between atoms: _29  and  _32
REMARK   14  A    between atoms: _32  and  _33
REMARK   15  A    between atoms: _38  and  _39
REMARK   16  A    between atoms: _41  and  _43
REMARK   17  A    between atoms: _43  and  _44
REMARK   18  A    between atoms: _43  and  _46
REMARK   19  A    between atoms: _46  and  _47
REMARK   20  A    between atoms: _53  and  _55
REMARK   21  A    between atoms: _55  and  _56
REMARK   22  A    between atoms: _55  and  _58
REMARK   23  A    between atoms: _61  and  _63
REMARK   24  A    between atoms: _63  and  _64
REMARK   25  A    between atoms: _63  and  _66
REMARK   26  A    between atoms: _66  and  _67
REMARK   27  A    between atoms: _70  and  _72
REMARK   28  A    between atoms: _72  and  _73
REMARK   29  A    between atoms: _72  and  _75
REMARK   30  A    between atoms: _75  and  _76
REMARK   31  A    between atoms: _81  and  _82
REMARK   32  A    between atoms: _84  and  _86
REMARK   33  A    between atoms: _86  and  _87
REMARK   34  A    between atoms: _86  and  _89
REMARK   35  A    between atoms: _89  and  _90
REMARK   36  A    between atoms: _90  and  _91
REMARK   37  A    between atoms: _93  and  _95
REMARK   38  A    between atoms: _95  and  _96
REMARK   39  A    between atoms: _95  and  _98
REMARK   40  A    between atoms: _98  and  _99
REMARK   41  A    between atoms: _99  and  _100
REMARK   42  A    between atoms: _103  and  _105
REMARK   43  A    between atoms: _105  and  _106
REMARK   44  A    between atoms: _105  and  _108
REMARK   45  A    between atoms: _111  and  _113
REMARK   46  A    between atoms: _113  and  _114
REMARK   47  A    between atoms: _116  and  _118
REMARK   48  A    between atoms: _118  and  _119
REMARK   49  A    between atoms: _118  and  _121
REMARK   50  A    between atoms: _121  and  _122
REMARK   51  A    between atoms: _128  and  _130
REMARK   52  A    between atoms: _130  and  _131
REMARK   53  A    between atoms: _130  and  _133
REMARK   54  A    between atoms: _136  and  _138
REMARK   55  A    between atoms: _138  and  _139
REMARK   56  A    between atoms: _138  and  _141
REMARK   57  A    between atoms: _141  and  _142
REMARK   58  A    between atoms: _148  and  _150
REMARK   59  A    between atoms: _150  and  _151
REMARK   60  A    between atoms: _150  and  _153
REMARK   61  A    between atoms: _153  and  _154
REMARK   62  A    between atoms: _159  and  _160
REMARK   63  A    between atoms: _162  and  _164
REMARK   64  A    between atoms: _164  and  _165
REMARK   65  A    between atoms: _164  and  _167
REMARK   66  A    between atoms: _167  and  _168
REMARK   67  A    between atoms: _168  and  _169
REMARK   68  A    between atoms: _171  and  _173
REMARK   69  A    between atoms: _173  and  _174
REMARK   70  A    between atoms: _173  and  _176
REMARK   71  A    between atoms: _176  and  _177
REMARK   72  A    between atoms: _182  and  _183
REMARK   73  A    between atoms: _185  and  _187
REMARK   74  A    between atoms: _187  and  _188
REMARK   75  A    between atoms: _187  and  _190
REMARK   76  A    between atoms: _190  and  _191
REMARK   77  A    between atoms: _191  and  _192
REMARK   78  A    between atoms: _192  and  _193
REMARK   79  A    between atoms: _202  and  _204
REMARK   80  A    between atoms: _204  and  _205
REMARK   81  A    between atoms: _204  and  _207
REMARK   82  A    between atoms: _207  and  _208
REMARK   83  A    between atoms: _208  and  _209
REMARK   84  A    between atoms: _212  and  _214
REMARK   85  A    between atoms: _214  and  _215
REMARK   86  A    between atoms: _214  and  _217
REMARK   87  A    between atoms: _217  and  _218
REMARK   88  A    between atoms: _218  and  _219
REMARK   89  A    between atoms: _219  and  _220
REMARK   90  A    between atoms: _220  and  _221
REMARK   91  A    between atoms: _225  and  _227
REMARK   92  A    between atoms: _227  and  _228
REMARK   93  A    between atoms: _231  and  _233
REMARK   94  A    between atoms: _233  and  _234
REMARK   95  A    between atoms: _236  and  _238
REMARK   96  A    between atoms: _238  and  _239
REMARK   97  A    between atoms: _238  and  _241
REMARK   98  A    between atoms: _241  and  _242
REMARK   99  A    between atoms: _247  and  _249
REMARK  100  A    between atoms: _249  and  _250
REMARK  101  A    between atoms: _249  and  _252
REMARK  102  A    between atoms: _252  and  _253
REMARK  103  A    between atoms: _253  and  _254
REMARK  104  A    between atoms: _257  and  _259
REMARK  105  A    between atoms: _259  and  _260
REMARK  106  A    between atoms: _259  and  _262
REMARK  107  A    between atoms: _262  and  _263
REMARK  108  A    between atoms: _263  and  _264
REMARK  109  A    between atoms: _269  and  _271
REMARK  110  A    between atoms: _271  and  _272
REMARK  111  A    between atoms: _271  and  _274
REMARK  112  A    between atoms: _274  and  _275
REMARK  113  A    between atoms: _277  and  _279
REMARK  114  A    between atoms: _279  and  _280
REMARK  115  A    between atoms: _279  and  _282
REMARK  116  A    between atoms: _282  and  _283
REMARK  117  A    between atoms: _289  and  _291
REMARK  118  A    between atoms: _291  and  _292
REMARK  119  A    between atoms: _291  and  _294
REMARK  120  A    between atoms: _294  and  _295
REMARK  121  A    between atoms: _295  and  _296
REMARK  122  A    between atoms: _296  and  _297
REMARK  123  A    between atoms: _306  and  _308
REMARK  124  A    between atoms: _308  and  _309
REMARK  125  A    between atoms: _308  and  _311
REMARK  126  A    between atoms: _314  and  _316
REMARK  127  A    between atoms: _316  and  _317
REMARK  128  A    between atoms: _316  and  _319
REMARK  129  A    between atoms: _319  and  _320
REMARK  130  A    between atoms: _323  and  _325
REMARK  131  A    between atoms: _325  and  _326
REMARK  132  A    between atoms: _325  and  _328
REMARK  133  A    between atoms: _328  and  _329
REMARK  134  A    between atoms: _332  and  _334
REMARK  135  A    between atoms: _334  and  _335
REMARK  136  A    between atoms: _334  and  _337
REMARK  137  A    between atoms: _337  and  _338
REMARK  138  A    between atoms: _338  and  _339
REMARK  139  A    between atoms: _339  and  _340
REMARK  140  A    between atoms: _349  and  _351
REMARK  141  A    between atoms: _351  and  _352
REMARK  142  A    between atoms: _351  and  _354
REMARK  143  A    between atoms: _354  and  _355
REMARK  144  A    between atoms: _358  and  _360
REMARK  145  A    between atoms: _360  and  _361
REMARK  146  A    between atoms: _360  and  _363
REMARK  147  A    between atoms: _363  and  _364
REMARK  148  A    between atoms: _367  and  _369
REMARK  149  A    between atoms: _369  and  _370
REMARK  150  A    between atoms: _369  and  _372
REMARK  151  A    between atoms: _372  and  _373
REMARK  152  A    between atoms: _378  and  _379
REMARK  153  A    between atoms: _381  and  _383
REMARK  154  A    between atoms: _383  and  _384
REMARK  155  A    between atoms: _383  and  _386
REMARK  156  A    between atoms: _386  and  _387
REMARK  157  A    between atoms: _392  and  _393
REMARK  158  A    between atoms: _395  and  _397
REMARK  159  A    between atoms: _397  and  _398
REMARK  160  A    between atoms: _397  and  _400
REMARK  161  A    between atoms: _400  and  _401
REMARK  162  A    between atoms: _404  and  _406
REMARK  163  A    between atoms: _406  and  _407
REMARK  164  A    between atoms: _406  and  _409
REMARK  165  A    between atoms: _409  and  _410
REMARK  166  A    between atoms: _410  and  _411
REMARK  167  A    between atoms: _416  and  _418
REMARK  168  A    between atoms: _418  and  _419
REMARK  169  A    between atoms: _418  and  _421
REMARK  170  A    between atoms: _424  and  _426
REMARK  171  A    between atoms: _426  and  _427
REMARK  172  A    between atoms: _426  and  _429
REMARK  173  A    between atoms: _429  and  _430
REMARK  174  A    between atoms: _433  and  _435
REMARK  175  A    between atoms: _435  and  _436
REMARK  176  A    between atoms: _435  and  _438
REMARK  177  A    between atoms: _438  and  _439
REMARK  178  A    between atoms: _441  and  _443
REMARK  179  A    between atoms: _443  and  _444
REMARK  180  A    between atoms: _446  and  _448
REMARK  181  A    between atoms: _448  and  _449
REMARK  182  A    between atoms: _448  and  _451
REMARK  183  A    between atoms: _451  and  _452
REMARK  184  A    between atoms: _452  and  _753
REMARK  185  A    between atoms: _453  and  _455
REMARK  186  A    between atoms: _455  and  _456
REMARK  187  A    between atoms: _455  and  _458
REMARK  188  A    between atoms: _458  and  _459
REMARK  189  A    between atoms: _464  and  _465
REMARK  190  A    between atoms: _467  and  _469
REMARK  191  A    between atoms: _469  and  _470
REMARK  192  A    between atoms: _469  and  _472
REMARK  193  A    between atoms: _472  and  _473
REMARK  194  A    between atoms: _473  and  _474
REMARK  195  A    between atoms: _479  and  _481
REMARK  196  A    between atoms: _481  and  _482
REMARK  197  A    between atoms: _481  and  _484
REMARK  198  A    between atoms: _484  and  _485
REMARK  199  A    between atoms: _485  and  _486
REMARK  200  A    between atoms: _491  and  _493
REMARK  201  A    between atoms: _493  and  _494
REMARK  202  A    between atoms: _493  and  _496
REMARK  203  A    between atoms: _496  and  _497
REMARK  204  A    between atoms: _502  and  _503
REMARK  205  A    between atoms: _505  and  _507
REMARK  206  A    between atoms: _507  and  _508
REMARK  207  A    between atoms: _511  and  _513
REMARK  208  A    between atoms: _513  and  _514
REMARK  209  A    between atoms: _513  and  _516
REMARK  210  A    between atoms: _516  and  _517
REMARK  211  A    between atoms: _522  and  _523
REMARK  212  A    between atoms: _525  and  _527
REMARK  213  A    between atoms: _527  and  _528
REMARK  214  A    between atoms: _527  and  _530
REMARK  215  A    between atoms: _530  and  _531
REMARK  216  A    between atoms: _536  and  _537
REMARK  217  A    between atoms: _539  and  _541
REMARK  218  A    between atoms: _541  and  _542
REMARK  219  A    between atoms: _541  and  _544
REMARK  220  A    between atoms: _544  and  _545
REMARK  221  A    between atoms: _548  and  _550
REMARK  222  A    between atoms: _550  and  _551
REMARK  223  A    between atoms: _554  and  _556
REMARK  224  A    between atoms: _556  and  _557
REMARK  225  A    between atoms: _560  and  _562
REMARK  226  A    between atoms: _562  and  _563
REMARK  227  A    between atoms: _562  and  _565
REMARK  228  A    between atoms: _565  and  _566
REMARK  229  A    between atoms: _569  and  _571
REMARK  230  A    between atoms: _571  and  _572
REMARK  231  A    between atoms: _571  and  _574
REMARK  232  A    between atoms: _574  and  _575
REMARK  233  A    between atoms: _578  and  _580
REMARK  234  A    between atoms: _580  and  _581
REMARK  235  A    between atoms: _580  and  _583
REMARK  236  A    between atoms: _583  and  _584
REMARK  237  A    between atoms: _587  and  _589
REMARK  238  A    between atoms: _589  and  _590
REMARK  239  A    between atoms: _589  and  _592
REMARK  240  A    between atoms: _592  and  _593
REMARK  241  A    between atoms: _593  and  _594
REMARK  242  A    between atoms: _594  and  _595
REMARK  243  A    between atoms: _595  and  _596
REMARK  244  A    between atoms: _600  and  _602
REMARK  245  A    between atoms: _602  and  _603
REMARK  246  A    between atoms: _602  and  _605
REMARK  247  A    between atoms: _605  and  _606
REMARK  248  A    between atoms: _611  and  _613
REMARK  249  A    between atoms: _613  and  _614
REMARK  250  A    between atoms: _613  and  _616
REMARK  251  A    between atoms: _616  and  _617
REMARK  252  A    between atoms: _617  and  _618
REMARK  253  A    between atoms: _618  and  _619
REMARK  254  A    between atoms: _619  and  _620
REMARK  255  A    between atoms: _624  and  _626
REMARK  256  A    between atoms: _626  and  _627
REMARK  257  A    between atoms: _626  and  _629
REMARK  258  A    between atoms: _629  and  _630
REMARK  259  A    between atoms: _640  and  _642
REMARK  260  A    between atoms: _642  and  _643
REMARK  261  A    between atoms: _646  and  _648
REMARK  262  A    between atoms: _648  and  _649
REMARK  263  A    between atoms: _648  and  _651
REMARK  264  A    between atoms: _651  and  _652
REMARK  265  A    between atoms: _652  and  _653
REMARK  266  A    between atoms: _656  and  _658
REMARK  267  A    between atoms: _658  and  _659
REMARK  268  A    between atoms: _658  and  _661
REMARK  269  A    between atoms: _661  and  _662
REMARK  270  A    between atoms: _662  and  _663
REMARK  271  A    between atoms: _666  and  _668
REMARK  272  A    between atoms: _668  and  _669
REMARK  273  A    between atoms: _668  and  _671
REMARK  274  A    between atoms: _671  and  _672
REMARK  275  A    between atoms: _672  and  _673
REMARK  276  A    between atoms: _673  and  _674
REMARK  277  A    between atoms: _683  and  _685
REMARK  278  A    between atoms: _685  and  _686
REMARK  279  A    between atoms: _685  and  _688
REMARK  280  A    between atoms: _688  and  _689
REMARK  281  A    between atoms: _692  and  _694
REMARK  282  A    between atoms: _694  and  _695
REMARK  283  A    between atoms: _694  and  _697
REMARK  284  A    between atoms: _697  and  _698
REMARK  285  A    between atoms: _698  and  _699
REMARK  286  A    between atoms: _699  and  _700
REMARK  287  A    between atoms: _709  and  _711
REMARK  288  A    between atoms: _711  and  _712
REMARK  289  A    between atoms: _715  and  _717
REMARK  290  A    between atoms: _717  and  _718
REMARK  291  A    between atoms: _717  and  _720
REMARK  292  A    between atoms: _720  and  _721
REMARK  293  A    between atoms: _726  and  _727
REMARK  294  A    between atoms: _729  and  _731
REMARK  295  A    between atoms: _731  and  _732
REMARK  296  A    between atoms: _731  and  _734
REMARK  297  A    between atoms: _734  and  _735
REMARK  298  A    between atoms: _738  and  _740
REMARK  299  A    between atoms: _740  and  _741
REMARK  300  A    between atoms: _740  and  _743
REMARK  301  A    between atoms: _743  and  _744
REMARK  302  A    between atoms: _747  and  _749
REMARK  303  A    between atoms: _749  and  _750
REMARK  304  A    between atoms: _749  and  _752
REMARK  305  A    between atoms: _752  and  _753
REMARK  306  A    between atoms: _754  and  _756
REMARK  307  A    between atoms: _756  and  _757
REMARK  308  A    between atoms: _756  and  _759
REMARK  309  A    between atoms: _762  and  _764
REMARK  310  A    between atoms: _764  and  _765
REMARK  311  A    between atoms: _764  and  _767
REMARK  312  A    between atoms: _767  and  _768
REMARK  313  A    between atoms: _768  and  _769
REMARK  314  A    between atoms: _772  and  _774
REMARK  315  A    between atoms: _774  and  _775
REMARK  316  A    between atoms: _774  and  _777
REMARK  317  A    between atoms: _777  and  _778
REMARK  318  A    between atoms: _788  and  _790
REMARK  319  A    between atoms: _790  and  _791
REMARK  320  A    between atoms: _790  and  _793
REMARK  321  A    between atoms: _793  and  _794
REMARK  322  A    between atoms: _797  and  _799
REMARK  323  A    between atoms: _799  and  _800
REMARK  324  A    between atoms: _799  and  _802
REMARK  325  A    between atoms: _802  and  _803
REMARK  326  A    between atoms: _808  and  _809
REMARK                            x       y       z     vdW  Elec       q    Type
REMARK                         _______ _______ _______ _____ _____    ______ ____
ROOT
ATOM      1  O   HOH     1      -5.534  24.924  -6.306  0.00  0.00    +0.000 OA
ENDROOT
TORSDOF 0
REMARK  Name = ../refined-set-2016/3p9m/3p9m_pocket.pdb
REMARK  326 active torsions:
REMARK  status: ('A' for Active; 'I' for Inactive)
REMARK    1  A    between atoms: _1  and  _3
REMARK    2  A    between atoms: _3  and  _4
REMARK    3  A    between atoms: _3  and  _6
REMARK    4  A    between atoms: _6  and  _7
REMARK    5  A    between atoms: _10  and  _12
REMARK    6  A    between atoms: _12  and  _13
REMARK    7  A    between atoms: _12  and  _15
REMARK    8  A    between atoms: _15  and  _16
REMARK    9  A    between atoms: _16  and  _17
REMARK   10  A    between atoms: _17  and  _18
REMARK   11  A    between atoms: _27  and  _29
REMARK   12  A    between atoms: _29  and  _30
REMARK   13  A    between atoms: _29  and  _32
REMARK   14  A    between atoms: _32  and  _33
REMARK   15  A    between atoms: _38  and  _39
REMARK   16  A    between atoms: _41  and  _43
REMARK   17  A    between atoms: _43  and  _44
REMARK   18  A    between atoms: _43  and  _46
REMARK   19  A    between atoms: _46  and  _47
REMARK   20  A    between atoms: _53  and  _55
REMARK   21  A    between atoms: _55  and  _56
REMARK   22  A    between atoms: _55  and  _58
REMARK   23  A    between atoms: _61  and  _63
REMARK   24  A    between atoms: _63  and  _64
REMARK   25  A    between atoms: _63  and  _66
REMARK   26  A    between atoms: _66  and  _67
REMARK   27  A    between atoms: _70  and  _72
REMARK   28  A    between atoms: _72  and  _73
REMARK   29  A    between atoms: _72  and  _75
REMARK   30  A    between atoms: _75  and  _76
REMARK   31  A    between atoms: _81  and  _82
REMARK   32  A    between atoms: _84  and  _86
REMARK   33  A    between atoms: _86  and  _87
REMARK   34  A    between atoms: _86  and  _89
REMARK   35  A    between atoms: _89  and  _90
REMARK   36  A    between atoms: _90  and  _91
REMARK   37  A    between atoms: _93  and  _95
REMARK   38  A    between atoms: _95  and  _96
REMARK   39  A    between atoms: _95  and  _98
REMARK   40  A    between atoms: _98  and  _99
REMARK   41  A    between atoms: _99  and  _100
REMARK   42  A    between atoms: _103  and  _105
REMARK   43  A    between atoms: _105  and  _106
REMARK   44  A    between atoms: _105  and  _108
REMARK   45  A    between atoms: _111  and  _113
REMARK   46  A    between atoms: _113  and  _114
REMARK   47  A    between atoms: _116  and  _118
REMARK   48  A    between atoms: _118  and  _119
REMARK   49  A    between atoms: _118  and  _121
REMARK   50  A    between atoms: _121  and  _122
REMARK   51  A    between atoms: _128  and  _130
REMARK   52  A    between atoms: _130  and  _131
REMARK   53  A    between atoms: _130  and  _133
REMARK   54  A    between atoms: _136  and  _138
REMARK   55  A    between atoms: _138  and  _139
REMARK   56  A    between atoms: _138  and  _141
REMARK   57  A    between atoms: _141  and  _142
REMARK   58  A    between atoms: _148  and  _150
REMARK   59  A    between atoms: _150  and  _151
REMARK   60  A    between atoms: _150  and  _153
REMARK   61  A    between atoms: _153  and  _154
REMARK   62  A    between atoms: _159  and  _160
REMARK   63  A    between atoms: _162  and  _164
REMARK   64  A    between atoms: _164  and  _165
REMARK   65  A    between atoms: _164  and  _167
REMARK   66  A    between atoms: _167  and  _168
REMARK   67  A    between atoms: _168  and  _169
REMARK   68  A    between atoms: _171  and  _173
REMARK   69  A    between atoms: _173  and  _174
REMARK   70  A    between atoms: _173  and  _176
REMARK   71  A    between atoms: _176  and  _177
REMARK   72  A    between atoms: _182  and  _183
REMARK   73  A    between atoms: _185  and  _187
REMARK   74  A    between atoms: _187  and  _188
REMARK   75  A    between atoms: _187  and  _190
REMARK   76  A    between atoms: _190  and  _191
REMARK   77  A    between atoms: _191  and  _192
REMARK   78  A    between atoms: _192  and  _193
REMARK   79  A    between atoms: _202  and  _204
REMARK   80  A    between atoms: _204  and  _205
REMARK   81  A    between atoms: _204  and  _207
REMARK   82  A    between atoms: _207  and  _208
REMARK   83  A    between atoms: _208  and  _209
REMARK   84  A    between atoms: _212  and  _214
REMARK   85  A    between atoms: _214  and  _215
REMARK   86  A    between atoms: _214  and  _217
REMARK   87  A    between atoms: _217  and  _218
REMARK   88  A    between atoms: _218  and  _219
REMARK   89  A    between atoms: _219  and  _220
REMARK   90  A    between atoms: _220  and  _221
REMARK   91  A    between atoms: _225  and  _227
REMARK   92  A    between atoms: _227  and  _228
REMARK   93  A    between atoms: _231  and  _233
REMARK   94  A    between atoms: _233  and  _234
REMARK   95  A    between atoms: _236  and  _238
REMARK   96  A    between atoms: _238  and  _239
REMARK   97  A    between atoms: _238  and  _241
REMARK   98  A    between atoms: _241  and  _242
REMARK   99  A    between atoms: _247  and  _249
REMARK  100  A    between atoms: _249  and  _250
REMARK  101  A    between atoms: _249  and  _252
REMARK  102  A    between atoms: _252  and  _253
REMARK  103  A    between atoms: _253  and  _254
REMARK  104  A    between atoms: _257  and  _259
REMARK  105  A    between atoms: _259  and  _260
REMARK  106  A    between atoms: _259  and  _262
REMARK  107  A    between atoms: _262  and  _263
REMARK  108  A    between atoms: _263  and  _264
REMARK  109  A    between atoms: _269  and  _271
REMARK  110  A    between atoms: _271  and  _272
REMARK  111  A    between atoms: _271  and  _274
REMARK  112  A    between atoms: _274  and  _275
REMARK  113  A    between atoms: _277  and  _279
REMARK  114  A    between atoms: _279  and  _280
REMARK  115  A    between atoms: _279  and  _282
REMARK  116  A    between atoms: _282  and  _283
REMARK  117  A    between atoms: _289  and  _291
REMARK  118  A    between atoms: _291  and  _292
REMARK  119  A    between atoms: _291  and  _294
REMARK  120  A    between atoms: _294  and  _295
REMARK  121  A    between atoms: _295  and  _296
REMARK  122  A    between atoms: _296  and  _297
REMARK  123  A    between atoms: _306  and  _308
REMARK  124  A    between atoms: _308  and  _309
REMARK  125  A    between atoms: _308  and  _311
REMARK  126  A    between atoms: _314  and  _316
REMARK  127  A    between atoms: _316  and  _317
REMARK  128  A    between atoms: _316  and  _319
REMARK  129  A    between atoms: _319  and  _320
REMARK  130  A    between atoms: _323  and  _325
REMARK  131  A    between atoms: _325  and  _326
REMARK  132  A    between atoms: _325  and  _328
REMARK  133  A    between atoms: _328  and  _329
REMARK  134  A    between atoms: _332  and  _334
REMARK  135  A    between atoms: _334  and  _335
REMARK  136  A    between atoms: _334  and  _337
REMARK  137  A    between atoms: _337  and  _338
REMARK  138  A    between atoms: _338  and  _339
REMARK  139  A    between atoms: _339  and  _340
REMARK  140  A    between atoms: _349  and  _351
REMARK  141  A    between atoms: _351  and  _352
REMARK  142  A    between atoms: _351  and  _354
REMARK  143  A    between atoms: _354  and  _355
REMARK  144  A    between atoms: _358  and  _360
REMARK  145  A    between atoms: _360  and  _361
REMARK  146  A    between atoms: _360  and  _363
REMARK  147  A    between atoms: _363  and  _364
REMARK  148  A    between atoms: _367  and  _369
REMARK  149  A    between atoms: _369  and  _370
REMARK  150  A    between atoms: _369  and  _372
REMARK  151  A    between atoms: _372  and  _373
REMARK  152  A    between atoms: _378  and  _379
REMARK  153  A    between atoms: _381  and  _383
REMARK  154  A    between atoms: _383  and  _384
REMARK  155  A    between atoms: _383  and  _386
REMARK  156  A    between atoms: _386  and  _387
REMARK  157  A    between atoms: _392  and  _393
REMARK  158  A    between atoms: _395  and  _397
REMARK  159  A    between atoms: _397  and  _398
REMARK  160  A    between atoms: _397  and  _400
REMARK  161  A    between atoms: _400  and  _401
REMARK  162  A    between atoms: _404  and  _406
REMARK  163  A    between atoms: _406  and  _407
REMARK  164  A    between atoms: _406  and  _409
REMARK  165  A    between atoms: _409  and  _410
REMARK  166  A    between atoms: _410  and  _411
REMARK  167  A    between atoms: _416  and  _418
REMARK  168  A    between atoms: _418  and  _419
REMARK  169  A    between atoms: _418  and  _421
REMARK  170  A    between atoms: _424  and  _426
REMARK  171  A    between atoms: _426  and  _427
REMARK  172  A    between atoms: _426  and  _429
REMARK  173  A    between atoms: _429  and  _430
REMARK  174  A    between atoms: _433  and  _435
REMARK  175  A    between atoms: _435  and  _436
REMARK  176  A    between atoms: _435  and  _438
REMARK  177  A    between atoms: _438  and  _439
REMARK  178  A    between atoms: _441  and  _443
REMARK  179  A    between atoms: _443  and  _444
REMARK  180  A    between atoms: _446  and  _448
REMARK  181  A    between atoms: _448  and  _449
REMARK  182  A    between atoms: _448  and  _451
REMARK  183  A    between atoms: _451  and  _452
REMARK  184  A    between atoms: _452  and  _753
REMARK  185  A    between atoms: _453  and  _455
REMARK  186  A    between atoms: _455  and  _456
REMARK  187  A    between atoms: _455  and  _458
REMARK  188  A    between atoms: _458  and  _459
REMARK  189  A    between atoms: _464  and  _465
REMARK  190  A    between atoms: _467  and  _469
REMARK  191  A    between atoms: _469  and  _470
REMARK  192  A    between atoms: _469  and  _472
REMARK  193  A    between atoms: _472  and  _473
REMARK  194  A    between atoms: _473  and  _474
REMARK  195  A    between atoms: _479  and  _481
REMARK  196  A    between atoms: _481  and  _482
REMARK  197  A    between atoms: _481  and  _484
REMARK  198  A    between atoms: _484  and  _485
REMARK  199  A    between atoms: _485  and  _486
REMARK  200  A    between atoms: _491  and  _493
REMARK  201  A    between atoms: _493  and  _494
REMARK  202  A    between atoms: _493  and  _496
REMARK  203  A    between atoms: _496  and  _497
REMARK  204  A    between atoms: _502  and  _503
REMARK  205  A    between atoms: _505  and  _507
REMARK  206  A    between atoms: _507  and  _508
REMARK  207  A    between atoms: _511  and  _513
REMARK  208  A    between atoms: _513  and  _514
REMARK  209  A    between atoms: _513  and  _516
REMARK  210  A    between atoms: _516  and  _517
REMARK  211  A    between atoms: _522  and  _523
REMARK  212  A    between atoms: _525  and  _527
REMARK  213  A    between atoms: _527  and  _528
REMARK  214  A    between atoms: _527  and  _530
REMARK  215  A    between atoms: _530  and  _531
REMARK  216  A    between atoms: _536  and  _537
REMARK  217  A    between atoms: _539  and  _541
REMARK  218  A    between atoms: _541  and  _542
REMARK  219  A    between atoms: _541  and  _544
REMARK  220  A    between atoms: _544  and  _545
REMARK  221  A    between atoms: _548  and  _550
REMARK  222  A    between atoms: _550  and  _551
REMARK  223  A    between atoms: _554  and  _556
REMARK  224  A    between atoms: _556  and  _557
REMARK  225  A    between atoms: _560  and  _562
REMARK  226  A    between atoms: _562  and  _563
REMARK  227  A    between atoms: _562  and  _565
REMARK  228  A    between atoms: _565  and  _566
REMARK  229  A    between atoms: _569  and  _571
REMARK  230  A    between atoms: _571  and  _572
REMARK  231  A    between atoms: _571  and  _574
REMARK  232  A    between atoms: _574  and  _575
REMARK  233  A    between atoms: _578  and  _580
REMARK  234  A    between atoms: _580  and  _581
REMARK  235  A    between atoms: _580  and  _583
REMARK  236  A    between atoms: _583  and  _584
REMARK  237  A    between atoms: _587  and  _589
REMARK  238  A    between atoms: _589  and  _590
REMARK  239  A    between atoms: _589  and  _592
REMARK  240  A    between atoms: _592  and  _593
REMARK  241  A    between atoms: _593  and  _594
REMARK  242  A    between atoms: _594  and  _595
REMARK  243  A    between atoms: _595  and  _596
REMARK  244  A    between atoms: _600  and  _602
REMARK  245  A    between atoms: _602  and  _603
REMARK  246  A    between atoms: _602  and  _605
REMARK  247  A    between atoms: _605  and  _606
REMARK  248  A    between atoms: _611  and  _613
REMARK  249  A    between atoms: _613  and  _614
REMARK  250  A    between atoms: _613  and  _616
REMARK  251  A    between atoms: _616  and  _617
REMARK  252  A    between atoms: _617  and  _618
REMARK  253  A    between atoms: _618  and  _619
REMARK  254  A    between atoms: _619  and  _620
REMARK  255  A    between atoms: _624  and  _626
REMARK  256  A    between atoms: _626  and  _627
REMARK  257  A    between atoms: _626  and  _629
REMARK  258  A    between atoms: _629  and  _630
REMARK  259  A    between atoms: _640  and  _642
REMARK  260  A    between atoms: _642  and  _643
REMARK  261  A    between atoms: _646  and  _648
REMARK  262  A    between atoms: _648  and  _649
REMARK  263  A    between atoms: _648  and  _651
REMARK  264  A    between atoms: _651  and  _652
REMARK  265  A    between atoms: _652  and  _653
REMARK  266  A    between atoms: _656  and  _658
REMARK  267  A    between atoms: _658  and  _659
REMARK  268  A    between atoms: _658  and  _661
REMARK  269  A    between atoms: _661  and  _662
REMARK  270  A    between atoms: _662  and  _663
REMARK  271  A    between atoms: _666  and  _668
REMARK  272  A    between atoms: _668  and  _669
REMARK  273  A    between atoms: _668  and  _671
REMARK  274  A    between atoms: _671  and  _672
REMARK  275  A    between atoms: _672  and  _673
REMARK  276  A    between atoms: _673  and  _674
REMARK  277  A    between atoms: _683  and  _685
REMARK  278  A    between atoms: _685  and  _686
REMARK  279  A    between atoms: _685  and  _688
REMARK  280  A    between atoms: _688  and  _689
REMARK  281  A    between atoms: _692  and  _694
REMARK  282  A    between atoms: _694  and  _695
REMARK  283  A    between atoms: _694  and  _697
REMARK  284  A    between atoms: _697  and  _698
REMARK  285  A    between atoms: _698  and  _699
REMARK  286  A    between atoms: _699  and  _700
REMARK  287  A    between atoms: _709  and  _711
REMARK  288  A    between atoms: _711  and  _712
REMARK  289  A    between atoms: _715  and  _717
REMARK  290  A    between atoms: _717  and  _718
REMARK  291  A    between atoms: _717  and  _720
REMARK  292  A    between atoms: _720  and  _721
REMARK  293  A    between atoms: _726  and  _727
REMARK  294  A    between atoms: _729  and  _731
REMARK  295  A    between atoms: _731  and  _732
REMARK  296  A    between atoms: _731  and  _734
REMARK  297  A    between atoms: _734  and  _735
REMARK  298  A    between atoms: _738  and  _740
REMARK  299  A    between atoms: _740  and  _741
REMARK  300  A    between atoms: _740  and  _743
REMARK  301  A    between atoms: _743  and  _744
REMARK  302  A    between atoms: _747  and  _749
REMARK  303  A    between atoms: _749  and  _750
REMARK  304  A    between atoms: _749  and  _752
REMARK  305  A    between atoms: _752  and  _753
REMARK  306  A    between atoms: _754  and  _756
REMARK  307  A    between atoms: _756  and  _757
REMARK  308  A    between atoms: _756  and  _759
REMARK  309  A    between atoms: _762  and  _764
REMARK  310  A    between atoms: _764  and  _765
REMARK  311  A    between atoms: _764  and  _767
REMARK  312  A    between atoms: _767  and  _768
REMARK  313  A    between atoms: _768  and  _769
REMARK  314  A    between atoms: _772  and  _774
REMARK  315  A    between atoms: _774  and  _775
REMARK  316  A    between atoms: _774  and  _777
REMARK  317  A    between atoms: _777  and  _778
REMARK  318  A    between atoms: _788  and  _790
REMARK  319  A    between atoms: _790  and  _791
REMARK  320  A    between atoms: _790  and  _793
REMARK  321  A    between atoms: _793  and  _794
REMARK  322  A    between atoms: _797  and  _799
REMARK  323  A    between atoms: _799  and  _800
REMARK  324  A    between atoms: _799  and  _802
REMARK  325  A    between atoms: _802  and  _803
REMARK  326  A    between atoms: _808  and  _809
REMARK                            x       y       z     vdW  Elec       q    Type
REMARK                         _______ _______ _______ _____ _____    ______ ____
ROOT
ATOM      1  O   HOH     1      -6.587   6.189  -8.770  0.00  0.00    +0.000 OA
ENDROOT
TORSDOF 0
REMARK  Name = ../refined-set-2016/3p9m/3p9m_pocket.pdb
REMARK  326 active torsions:
REMARK  status: ('A' for Active; 'I' for Inactive)
REMARK    1  A    between atoms: _1  and  _3
REMARK    2  A    between atoms: _3  and  _4
REMARK    3  A    between atoms: _3  and  _6
REMARK    4  A    between atoms: _6  and  _7
REMARK    5  A    between atoms: _10  and  _12
REMARK    6  A    between atoms: _12  and  _13
REMARK    7  A    between atoms: _12  and  _15
REMARK    8  A    between atoms: _15  and  _16
REMARK    9  A    between atoms: _16  and  _17
REMARK   10  A    between atoms: _17  and  _18
REMARK   11  A    between atoms: _27  and  _29
REMARK   12  A    between atoms: _29  and  _30
REMARK   13  A    between atoms: _29  and  _32
REMARK   14  A    between atoms: _32  and  _33
REMARK   15  A    between atoms: _38  and  _39
REMARK   16  A    between atoms: _41  and  _43
REMARK   17  A    between atoms: _43  and  _44
REMARK   18  A    between atoms: _43  and  _46
REMARK   19  A    between atoms: _46  and  _47
REMARK   20  A    between atoms: _53  and  _55
REMARK   21  A    between atoms: _55  and  _56
REMARK   22  A    between atoms: _55  and  _58
REMARK   23  A    between atoms: _61  and  _63
REMARK   24  A    between atoms: _63  and  _64
REMARK   25  A    between atoms: _63  and  _66
REMARK   26  A    between atoms: _66  and  _67
REMARK   27  A    between atoms: _70  and  _72
REMARK   28  A    between atoms: _72  and  _73
REMARK   29  A    between atoms: _72  and  _75
REMARK   30  A    between atoms: _75  and  _76
REMARK   31  A    between atoms: _81  and  _82
REMARK   32  A    between atoms: _84  and  _86
REMARK   33  A    between atoms: _86  and  _87
REMARK   34  A    between atoms: _86  and  _89
REMARK   35  A    between atoms: _89  and  _90
REMARK   36  A    between atoms: _90  and  _91
REMARK   37  A    between atoms: _93  and  _95
REMARK   38  A    between atoms: _95  and  _96
REMARK   39  A    between atoms: _95  and  _98
REMARK   40  A    between atoms: _98  and  _99
REMARK   41  A    between atoms: _99  and  _100
REMARK   42  A    between atoms: _103  and  _105
REMARK   43  A    between atoms: _105  and  _106
REMARK   44  A    between atoms: _105  and  _108
REMARK   45  A    between atoms: _111  and  _113
REMARK   46  A    between atoms: _113  and  _114
REMARK   47  A    between atoms: _116  and  _118
REMARK   48  A    between atoms: _118  and  _119
REMARK   49  A    between atoms: _118  and  _121
REMARK   50  A    between atoms: _121  and  _122
REMARK   51  A    between atoms: _128  and  _130
REMARK   52  A    between atoms: _130  and  _131
REMARK   53  A    between atoms: _130  and  _133
REMARK   54  A    between atoms: _136  and  _138
REMARK   55  A    between atoms: _138  and  _139
REMARK   56  A    between atoms: _138  and  _141
REMARK   57  A    between atoms: _141  and  _142
REMARK   58  A    between atoms: _148  and  _150
REMARK   59  A    between atoms: _150  and  _151
REMARK   60  A    between atoms: _150  and  _153
REMARK   61  A    between atoms: _153  and  _154
REMARK   62  A    between atoms: _159  and  _160
REMARK   63  A    between atoms: _162  and  _164
REMARK   64  A    between atoms: _164  and  _165
REMARK   65  A    between atoms: _164  and  _167
REMARK   66  A    between atoms: _167  and  _168
REMARK   67  A    between atoms: _168  and  _169
REMARK   68  A    between atoms: _171  and  _173
REMARK   69  A    between atoms: _173  and  _174
REMARK   70  A    between atoms: _173  and  _176
REMARK   71  A    between atoms: _176  and  _177
REMARK   72  A    between atoms: _182  and  _183
REMARK   73  A    between atoms: _185  and  _187
REMARK   74  A    between atoms: _187  and  _188
REMARK   75  A    between atoms: _187  and  _190
REMARK   76  A    between atoms: _190  and  _191
REMARK   77  A    between atoms: _191  and  _192
REMARK   78  A    between atoms: _192  and  _193
REMARK   79  A    between atoms: _202  and  _204
REMARK   80  A    between atoms: _204  and  _205
REMARK   81  A    between atoms: _204  and  _207
REMARK   82  A    between atoms: _207  and  _208
REMARK   83  A    between atoms: _208  and  _209
REMARK   84  A    between atoms: _212  and  _214
REMARK   85  A    between atoms: _214  and  _215
REMARK   86  A    between atoms: _214  and  _217
REMARK   87  A    between atoms: _217  and  _218
REMARK   88  A    between atoms: _218  and  _219
REMARK   89  A    between atoms: _219  and  _220
REMARK   90  A    between atoms: _220  and  _221
REMARK   91  A    between atoms: _225  and  _227
REMARK   92  A    between atoms: _227  and  _228
REMARK   93  A    between atoms: _231  and  _233
REMARK   94  A    between atoms: _233  and  _234
REMARK   95  A    between atoms: _236  and  _238
REMARK   96  A    between atoms: _238  and  _239
REMARK   97  A    between atoms: _238  and  _241
REMARK   98  A    between atoms: _241  and  _242
REMARK   99  A    between atoms: _247  and  _249
REMARK  100  A    between atoms: _249  and  _250
REMARK  101  A    between atoms: _249  and  _252
REMARK  102  A    between atoms: _252  and  _253
REMARK  103  A    between atoms: _253  and  _254
REMARK  104  A    between atoms: _257  and  _259
REMARK  105  A    between atoms: _259  and  _260
REMARK  106  A    between atoms: _259  and  _262
REMARK  107  A    between atoms: _262  and  _263
REMARK  108  A    between atoms: _263  and  _264
REMARK  109  A    between atoms: _269  and  _271
REMARK  110  A    between atoms: _271  and  _272
REMARK  111  A    between atoms: _271  and  _274
REMARK  112  A    between atoms: _274  and  _275
REMARK  113  A    between atoms: _277  and  _279
REMARK  114  A    between atoms: _279  and  _280
REMARK  115  A    between atoms: _279  and  _282
REMARK  116  A    between atoms: _282  and  _283
REMARK  117  A    between atoms: _289  and  _291
REMARK  118  A    between atoms: _291  and  _292
REMARK  119  A    between atoms: _291  and  _294
REMARK  120  A    between atoms: _294  and  _295
REMARK  121  A    between atoms: _295  and  _296
REMARK  122  A    between atoms: _296  and  _297
REMARK  123  A    between atoms: _306  and  _308
REMARK  124  A    between atoms: _308  and  _309
REMARK  125  A    between atoms: _308  and  _311
REMARK  126  A    between atoms: _314  and  _316
REMARK  127  A    between atoms: _316  and  _317
REMARK  128  A    between atoms: _316  and  _319
REMARK  129  A    between atoms: _319  and  _320
REMARK  130  A    between atoms: _323  and  _325
REMARK  131  A    between atoms: _325  and  _326
REMARK  132  A    between atoms: _325  and  _328
REMARK  133  A    between atoms: _328  and  _329
REMARK  134  A    between atoms: _332  and  _334
REMARK  135  A    between atoms: _334  and  _335
REMARK  136  A    between atoms: _334  and  _337
REMARK  137  A    between atoms: _337  and  _338
REMARK  138  A    between atoms: _338  and  _339
REMARK  139  A    between atoms: _339  and  _340
REMARK  140  A    between atoms: _349  and  _351
REMARK  141  A    between atoms: _351  and  _352
REMARK  142  A    between atoms: _351  and  _354
REMARK  143  A    between atoms: _354  and  _355
REMARK  144  A    between atoms: _358  and  _360
REMARK  145  A    between atoms: _360  and  _361
REMARK  146  A    between atoms: _360  and  _363
REMARK  147  A    between atoms: _363  and  _364
REMARK  148  A    between atoms: _367  and  _369
REMARK  149  A    between atoms: _369  and  _370
REMARK  150  A    between atoms: _369  and  _372
REMARK  151  A    between atoms: _372  and  _373
REMARK  152  A    between atoms: _378  and  _379
REMARK  153  A    between atoms: _381  and  _383
REMARK  154  A    between atoms: _383  and  _384
REMARK  155  A    between atoms: _383  and  _386
REMARK  156  A    between atoms: _386  and  _387
REMARK  157  A    between atoms: _392  and  _393
REMARK  158  A    between atoms: _395  and  _397
REMARK  159  A    between atoms: _397  and  _398
REMARK  160  A    between atoms: _397  and  _400
REMARK  161  A    between atoms: _400  and  _401
REMARK  162  A    between atoms: _404  and  _406
REMARK  163  A    between atoms: _406  and  _407
REMARK  164  A    between atoms: _406  and  _409
REMARK  165  A    between atoms: _409  and  _410
REMARK  166  A    between atoms: _410  and  _411
REMARK  167  A    between atoms: _416  and  _418
REMARK  168  A    between atoms: _418  and  _419
REMARK  169  A    between atoms: _418  and  _421
REMARK  170  A    between atoms: _424  and  _426
REMARK  171  A    between atoms: _426  and  _427
REMARK  172  A    between atoms: _426  and  _429
REMARK  173  A    between atoms: _429  and  _430
REMARK  174  A    between atoms: _433  and  _435
REMARK  175  A    between atoms: _435  and  _436
REMARK  176  A    between atoms: _435  and  _438
REMARK  177  A    between atoms: _438  and  _439
REMARK  178  A    between atoms: _441  and  _443
REMARK  179  A    between atoms: _443  and  _444
REMARK  180  A    between atoms: _446  and  _448
REMARK  181  A    between atoms: _448  and  _449
REMARK  182  A    between atoms: _448  and  _451
REMARK  183  A    between atoms: _451  and  _452
REMARK  184  A    between atoms: _452  and  _753
REMARK  185  A    between atoms: _453  and  _455
REMARK  186  A    between atoms: _455  and  _456
REMARK  187  A    between atoms: _455  and  _458
REMARK  188  A    between atoms: _458  and  _459
REMARK  189  A    between atoms: _464  and  _465
REMARK  190  A    between atoms: _467  and  _469
REMARK  191  A    between atoms: _469  and  _470
REMARK  192  A    between atoms: _469  and  _472
REMARK  193  A    between atoms: _472  and  _473
REMARK  194  A    between atoms: _473  and  _474
REMARK  195  A    between atoms: _479  and  _481
REMARK  196  A    between atoms: _481  and  _482
REMARK  197  A    between atoms: _481  and  _484
REMARK  198  A    between atoms: _484  and  _485
REMARK  199  A    between atoms: _485  and  _486
REMARK  200  A    between atoms: _491  and  _493
REMARK  201  A    between atoms: _493  and  _494
REMARK  202  A    between atoms: _493  and  _496
REMARK  203  A    between atoms: _496  and  _497
REMARK  204  A    between atoms: _502  and  _503
REMARK  205  A    between atoms: _505  and  _507
REMARK  206  A    between atoms: _507  and  _508
REMARK  207  A    between atoms: _511  and  _513
REMARK  208  A    between atoms: _513  and  _514
REMARK  209  A    between atoms: _513  and  _516
REMARK  210  A    between atoms: _516  and  _517
REMARK  211  A    between atoms: _522  and  _523
REMARK  212  A    between atoms: _525  and  _527
REMARK  213  A    between atoms: _527  and  _528
REMARK  214  A    between atoms: _527  and  _530
REMARK  215  A    between atoms: _530  and  _531
REMARK  216  A    between atoms: _536  and  _537
REMARK  217  A    between atoms: _539  and  _541
REMARK  218  A    between atoms: _541  and  _542
REMARK  219  A    between atoms: _541  and  _544
REMARK  220  A    between atoms: _544  and  _545
REMARK  221  A    between atoms: _548  and  _550
REMARK  222  A    between atoms: _550  and  _551
REMARK  223  A    between atoms: _554  and  _556
REMARK  224  A    between atoms: _556  and  _557
REMARK  225  A    between atoms: _560  and  _562
REMARK  226  A    between atoms: _562  and  _563
REMARK  227  A    between atoms: _562  and  _565
REMARK  228  A    between atoms: _565  and  _566
REMARK  229  A    between atoms: _569  and  _571
REMARK  230  A    between atoms: _571  and  _572
REMARK  231  A    between atoms: _571  and  _574
REMARK  232  A    between atoms: _574  and  _575
REMARK  233  A    between atoms: _578  and  _580
REMARK  234  A    between atoms: _580  and  _581
REMARK  235  A    between atoms: _580  and  _583
REMARK  236  A    between atoms: _583  and  _584
REMARK  237  A    between atoms: _587  and  _589
REMARK  238  A    between atoms: _589  and  _590
REMARK  239  A    between atoms: _589  and  _592
REMARK  240  A    between atoms: _592  and  _593
REMARK  241  A    between atoms: _593  and  _594
REMARK  242  A    between atoms: _594  and  _595
REMARK  243  A    between atoms: _595  and  _596
REMARK  244  A    between atoms: _600  and  _602
REMARK  245  A    between atoms: _602  and  _603
REMARK  246  A    between atoms: _602  and  _605
REMARK  247  A    between atoms: _605  and  _606
REMARK  248  A    between atoms: _611  and  _613
REMARK  249  A    between atoms: _613  and  _614
REMARK  250  A    between atoms: _613  and  _616
REMARK  251  A    between atoms: _616  and  _617
REMARK  252  A    between atoms: _617  and  _618
REMARK  253  A    between atoms: _618  and  _619
REMARK  254  A    between atoms: _619  and  _620
REMARK  255  A    between atoms: _624  and  _626
REMARK  256  A    between atoms: _626  and  _627
REMARK  257  A    between atoms: _626  and  _629
REMARK  258  A    between atoms: _629  and  _630
REMARK  259  A    between atoms: _640  and  _642
REMARK  260  A    between atoms: _642  and  _643
REMARK  261  A    between atoms: _646  and  _648
REMARK  262  A    between atoms: _648  and  _649
REMARK  263  A    between atoms: _648  and  _651
REMARK  264  A    between atoms: _651  and  _652
REMARK  265  A    between atoms: _652  and  _653
REMARK  266  A    between atoms: _656  and  _658
REMARK  267  A    between atoms: _658  and  _659
REMARK  268  A    between atoms: _658  and  _661
REMARK  269  A    between atoms: _661  and  _662
REMARK  270  A    between atoms: _662  and  _663
REMARK  271  A    between atoms: _666  and  _668
REMARK  272  A    between atoms: _668  and  _669
REMARK  273  A    between atoms: _668  and  _671
REMARK  274  A    between atoms: _671  and  _672
REMARK  275  A    between atoms: _672  and  _673
REMARK  276  A    between atoms: _673  and  _674
REMARK  277  A    between atoms: _683  and  _685
REMARK  278  A    between atoms: _685  and  _686
REMARK  279  A    between atoms: _685  and  _688
REMARK  280  A    between atoms: _688  and  _689
REMARK  281  A    between atoms: _692  and  _694
REMARK  282  A    between atoms: _694  and  _695
REMARK  283  A    between atoms: _694  and  _697
REMARK  284  A    between atoms: _697  and  _698
REMARK  285  A    between atoms: _698  and  _699
REMARK  286  A    between atoms: _699  and  _700
REMARK  287  A    between atoms: _709  and  _711
REMARK  288  A    between atoms: _711  and  _712
REMARK  289  A    between atoms: _715  and  _717
REMARK  290  A    between atoms: _717  and  _718
REMARK  291  A    between atoms: _717  and  _720
REMARK  292  A    between atoms: _720  and  _721
REMARK  293  A    between atoms: _726  and  _727
REMARK  294  A    between atoms: _729  and  _731
REMARK  295  A    between atoms: _731  and  _732
REMARK  296  A    between atoms: _731  and  _734
REMARK  297  A    between atoms: _734  and  _735
REMARK  298  A    between atoms: _738  and  _740
REMARK  299  A    between atoms: _740  and  _741
REMARK  300  A    between atoms: _740  and  _743
REMARK  301  A    between atoms: _743  and  _744
REMARK  302  A    between atoms: _747  and  _749
REMARK  303  A    between atoms: _749  and  _750
REMARK  304  A    between atoms: _749  and  _752
REMARK  305  A    between atoms: _752  and  _753
REMARK  306  A    between atoms: _754  and  _756
REMARK  307  A    between atoms: _756  and  _757
REMARK  308  A    between atoms: _756  and  _759
REMARK  309  A    between atoms: _762  and  _764
REMARK  310  A    between atoms: _764  and  _765
REMARK  311  A    between atoms: _764  and  _767
REMARK  312  A    between atoms: _767  and  _768
REMARK  313  A    between atoms: _768  and  _769
REMARK  314  A    between atoms: _772  and  _774
REMARK  315  A    between atoms: _774  and  _775
REMARK  316  A    between atoms: _774  and  _777
REMARK  317  A    between atoms: _777  and  _778
REMARK  318  A    between atoms: _788  and  _790
REMARK  319  A    between atoms: _790  and  _791
REMARK  320  A    between atoms: _790  and  _793
REMARK  321  A    between atoms: _793  and  _794
REMARK  322  A    between atoms: _797  and  _799
REMARK  323  A    between atoms: _799  and  _800
REMARK  324  A    between atoms: _799  and  _802
REMARK  325  A    between atoms: _802  and  _803
REMARK  326  A    between atoms: _808  and  _809
REMARK                            x       y       z     vdW  Elec       q    Type
REMARK                         _______ _______ _______ _____ _____    ______ ____
ROOT
ATOM      1  O   HOH     1      -5.424  13.884  -1.588  0.00  0.00    +0.000 OA
ENDROOT
TORSDOF 0
REMARK  Name = ../refined-set-2016/3p9m/3p9m_pocket.pdb
REMARK  326 active torsions:
REMARK  status: ('A' for Active; 'I' for Inactive)
REMARK    1  A    between atoms: _1  and  _3
REMARK    2  A    between atoms: _3  and  _4
REMARK    3  A    between atoms: _3  and  _6
REMARK    4  A    between atoms: _6  and  _7
REMARK    5  A    between atoms: _10  and  _12
REMARK    6  A    between atoms: _12  and  _13
REMARK    7  A    between atoms: _12  and  _15
REMARK    8  A    between atoms: _15  and  _16
REMARK    9  A    between atoms: _16  and  _17
REMARK   10  A    between atoms: _17  and  _18
REMARK   11  A    between atoms: _27  and  _29
REMARK   12  A    between atoms: _29  and  _30
REMARK   13  A    between atoms: _29  and  _32
REMARK   14  A    between atoms: _32  and  _33
REMARK   15  A    between atoms: _38  and  _39
REMARK   16  A    between atoms: _41  and  _43
REMARK   17  A    between atoms: _43  and  _44
REMARK   18  A    between atoms: _43  and  _46
REMARK   19  A    between atoms: _46  and  _47
REMARK   20  A    between atoms: _53  and  _55
REMARK   21  A    between atoms: _55  and  _56
REMARK   22  A    between atoms: _55  and  _58
REMARK   23  A    between atoms: _61  and  _63
REMARK   24  A    between atoms: _63  and  _64
REMARK   25  A    between atoms: _63  and  _66
REMARK   26  A    between atoms: _66  and  _67
REMARK   27  A    between atoms: _70  and  _72
REMARK   28  A    between atoms: _72  and  _73
REMARK   29  A    between atoms: _72  and  _75
REMARK   30  A    between atoms: _75  and  _76
REMARK   31  A    between atoms: _81  and  _82
REMARK   32  A    between atoms: _84  and  _86
REMARK   33  A    between atoms: _86  and  _87
REMARK   34  A    between atoms: _86  and  _89
REMARK   35  A    between atoms: _89  and  _90
REMARK   36  A    between atoms: _90  and  _91
REMARK   37  A    between atoms: _93  and  _95
REMARK   38  A    between atoms: _95  and  _96
REMARK   39  A    between atoms: _95  and  _98
REMARK   40  A    between atoms: _98  and  _99
REMARK   41  A    between atoms: _99  and  _100
REMARK   42  A    between atoms: _103  and  _105
REMARK   43  A    between atoms: _105  and  _106
REMARK   44  A    between atoms: _105  and  _108
REMARK   45  A    between atoms: _111  and  _113
REMARK   46  A    between atoms: _113  and  _114
REMARK   47  A    between atoms: _116  and  _118
REMARK   48  A    between atoms: _118  and  _119
REMARK   49  A    between atoms: _118  and  _121
REMARK   50  A    between atoms: _121  and  _122
REMARK   51  A    between atoms: _128  and  _130
REMARK   52  A    between atoms: _130  and  _131
REMARK   53  A    between atoms: _130  and  _133
REMARK   54  A    between atoms: _136  and  _138
REMARK   55  A    between atoms: _138  and  _139
REMARK   56  A    between atoms: _138  and  _141
REMARK   57  A    between atoms: _141  and  _142
REMARK   58  A    between atoms: _148  and  _150
REMARK   59  A    between atoms: _150  and  _151
REMARK   60  A    between atoms: _150  and  _153
REMARK   61  A    between atoms: _153  and  _154
REMARK   62  A    between atoms: _159  and  _160
REMARK   63  A    between atoms: _162  and  _164
REMARK   64  A    between atoms: _164  and  _165
REMARK   65  A    between atoms: _164  and  _167
REMARK   66  A    between atoms: _167  and  _168
REMARK   67  A    between atoms: _168  and  _169
REMARK   68  A    between atoms: _171  and  _173
REMARK   69  A    between atoms: _173  and  _174
REMARK   70  A    between atoms: _173  and  _176
REMARK   71  A    between atoms: _176  and  _177
REMARK   72  A    between atoms: _182  and  _183
REMARK   73  A    between atoms: _185  and  _187
REMARK   74  A    between atoms: _187  and  _188
REMARK   75  A    between atoms: _187  and  _190
REMARK   76  A    between atoms: _190  and  _191
REMARK   77  A    between atoms: _191  and  _192
REMARK   78  A    between atoms: _192  and  _193
REMARK   79  A    between atoms: _202  and  _204
REMARK   80  A    between atoms: _204  and  _205
REMARK   81  A    between atoms: _204  and  _207
REMARK   82  A    between atoms: _207  and  _208
REMARK   83  A    between atoms: _208  and  _209
REMARK   84  A    between atoms: _212  and  _214
REMARK   85  A    between atoms: _214  and  _215
REMARK   86  A    between atoms: _214  and  _217
REMARK   87  A    between atoms: _217  and  _218
REMARK   88  A    between atoms: _218  and  _219
REMARK   89  A    between atoms: _219  and  _220
REMARK   90  A    between atoms: _220  and  _221
REMARK   91  A    between atoms: _225  and  _227
REMARK   92  A    between atoms: _227  and  _228
REMARK   93  A    between atoms: _231  and  _233
REMARK   94  A    between atoms: _233  and  _234
REMARK   95  A    between atoms: _236  and  _238
REMARK   96  A    between atoms: _238  and  _239
REMARK   97  A    between atoms: _238  and  _241
REMARK   98  A    between atoms: _241  and  _242
REMARK   99  A    between atoms: _247  and  _249
REMARK  100  A    between atoms: _249  and  _250
REMARK  101  A    between atoms: _249  and  _252
REMARK  102  A    between atoms: _252  and  _253
REMARK  103  A    between atoms: _253  and  _254
REMARK  104  A    between atoms: _257  and  _259
REMARK  105  A    between atoms: _259  and  _260
REMARK  106  A    between atoms: _259  and  _262
REMARK  107  A    between atoms: _262  and  _263
REMARK  108  A    between atoms: _263  and  _264
REMARK  109  A    between atoms: _269  and  _271
REMARK  110  A    between atoms: _271  and  _272
REMARK  111  A    between atoms: _271  and  _274
REMARK  112  A    between atoms: _274  and  _275
REMARK  113  A    between atoms: _277  and  _279
REMARK  114  A    between atoms: _279  and  _280
REMARK  115  A    between atoms: _279  and  _282
REMARK  116  A    between atoms: _282  and  _283
REMARK  117  A    between atoms: _289  and  _291
REMARK  118  A    between atoms: _291  and  _292
REMARK  119  A    between atoms: _291  and  _294
REMARK  120  A    between atoms: _294  and  _295
REMARK  121  A    between atoms: _295  and  _296
REMARK  122  A    between atoms: _296  and  _297
REMARK  123  A    between atoms: _306  and  _308
REMARK  124  A    between atoms: _308  and  _309
REMARK  125  A    between atoms: _308  and  _311
REMARK  126  A    between atoms: _314  and  _316
REMARK  127  A    between atoms: _316  and  _317
REMARK  128  A    between atoms: _316  and  _319
REMARK  129  A    between atoms: _319  and  _320
REMARK  130  A    between atoms: _323  and  _325
REMARK  131  A    between atoms: _325  and  _326
REMARK  132  A    between atoms: _325  and  _328
REMARK  133  A    between atoms: _328  and  _329
REMARK  134  A    between atoms: _332  and  _334
REMARK  135  A    between atoms: _334  and  _335
REMARK  136  A    between atoms: _334  and  _337
REMARK  137  A    between atoms: _337  and  _338
REMARK  138  A    between atoms: _338  and  _339
REMARK  139  A    between atoms: _339  and  _340
REMARK  140  A    between atoms: _349  and  _351
REMARK  141  A    between atoms: _351  and  _352
REMARK  142  A    between atoms: _351  and  _354
REMARK  143  A    between atoms: _354  and  _355
REMARK  144  A    between atoms: _358  and  _360
REMARK  145  A    between atoms: _360  and  _361
REMARK  146  A    between atoms: _360  and  _363
REMARK  147  A    between atoms: _363  and  _364
REMARK  148  A    between atoms: _367  and  _369
REMARK  149  A    between atoms: _369  and  _370
REMARK  150  A    between atoms: _369  and  _372
REMARK  151  A    between atoms: _372  and  _373
REMARK  152  A    between atoms: _378  and  _379
REMARK  153  A    between atoms: _381  and  _383
REMARK  154  A    between atoms: _383  and  _384
REMARK  155  A    between atoms: _383  and  _386
REMARK  156  A    between atoms: _386  and  _387
REMARK  157  A    between atoms: _392  and  _393
REMARK  158  A    between atoms: _395  and  _397
REMARK  159  A    between atoms: _397  and  _398
REMARK  160  A    between atoms: _397  and  _400
REMARK  161  A    between atoms: _400  and  _401
REMARK  162  A    between atoms: _404  and  _406
REMARK  163  A    between atoms: _406  and  _407
REMARK  164  A    between atoms: _406  and  _409
REMARK  165  A    between atoms: _409  and  _410
REMARK  166  A    between atoms: _410  and  _411
REMARK  167  A    between atoms: _416  and  _418
REMARK  168  A    between atoms: _418  and  _419
REMARK  169  A    between atoms: _418  and  _421
REMARK  170  A    between atoms: _424  and  _426
REMARK  171  A    between atoms: _426  and  _427
REMARK  172  A    between atoms: _426  and  _429
REMARK  173  A    between atoms: _429  and  _430
REMARK  174  A    between atoms: _433  and  _435
REMARK  175  A    between atoms: _435  and  _436
REMARK  176  A    between atoms: _435  and  _438
REMARK  177  A    between atoms: _438  and  _439
REMARK  178  A    between atoms: _441  and  _443
REMARK  179  A    between atoms: _443  and  _444
REMARK  180  A    between atoms: _446  and  _448
REMARK  181  A    between atoms: _448  and  _449
REMARK  182  A    between atoms: _448  and  _451
REMARK  183  A    between atoms: _451  and  _452
REMARK  184  A    between atoms: _452  and  _753
REMARK  185  A    between atoms: _453  and  _455
REMARK  186  A    between atoms: _455  and  _456
REMARK  187  A    between atoms: _455  and  _458
REMARK  188  A    between atoms: _458  and  _459
REMARK  189  A    between atoms: _464  and  _465
REMARK  190  A    between atoms: _467  and  _469
REMARK  191  A    between atoms: _469  and  _470
REMARK  192  A    between atoms: _469  and  _472
REMARK  193  A    between atoms: _472  and  _473
REMARK  194  A    between atoms: _473  and  _474
REMARK  195  A    between atoms: _479  and  _481
REMARK  196  A    between atoms: _481  and  _482
REMARK  197  A    between atoms: _481  and  _484
REMARK  198  A    between atoms: _484  and  _485
REMARK  199  A    between atoms: _485  and  _486
REMARK  200  A    between atoms: _491  and  _493
REMARK  201  A    between atoms: _493  and  _494
REMARK  202  A    between atoms: _493  and  _496
REMARK  203  A    between atoms: _496  and  _497
REMARK  204  A    between atoms: _502  and  _503
REMARK  205  A    between atoms: _505  and  _507
REMARK  206  A    between atoms: _507  and  _508
REMARK  207  A    between atoms: _511  and  _513
REMARK  208  A    between atoms: _513  and  _514
REMARK  209  A    between atoms: _513  and  _516
REMARK  210  A    between atoms: _516  and  _517
REMARK  211  A    between atoms: _522  and  _523
REMARK  212  A    between atoms: _525  and  _527
REMARK  213  A    between atoms: _527  and  _528
REMARK  214  A    between atoms: _527  and  _530
REMARK  215  A    between atoms: _530  and  _531
REMARK  216  A    between atoms: _536  and  _537
REMARK  217  A    between atoms: _539  and  _541
REMARK  218  A    between atoms: _541  and  _542
REMARK  219  A    between atoms: _541  and  _544
REMARK  220  A    between atoms: _544  and  _545
REMARK  221  A    between atoms: _548  and  _550
REMARK  222  A    between atoms: _550  and  _551
REMARK  223  A    between atoms: _554  and  _556
REMARK  224  A    between atoms: _556  and  _557
REMARK  225  A    between atoms: _560  and  _562
REMARK  226  A    between atoms: _562  and  _563
REMARK  227  A    between atoms: _562  and  _565
REMARK  228  A    between atoms: _565  and  _566
REMARK  229  A    between atoms: _569  and  _571
REMARK  230  A    between atoms: _571  and  _572
REMARK  231  A    between atoms: _571  and  _574
REMARK  232  A    between atoms: _574  and  _575
REMARK  233  A    between atoms: _578  and  _580
REMARK  234  A    between atoms: _580  and  _581
REMARK  235  A    between atoms: _580  and  _583
REMARK  236  A    between atoms: _583  and  _584
REMARK  237  A    between atoms: _587  and  _589
REMARK  238  A    between atoms: _589  and  _590
REMARK  239  A    between atoms: _589  and  _592
REMARK  240  A    between atoms: _592  and  _593
REMARK  241  A    between atoms: _593  and  _594
REMARK  242  A    between atoms: _594  and  _595
REMARK  243  A    between atoms: _595  and  _596
REMARK  244  A    between atoms: _600  and  _602
REMARK  245  A    between atoms: _602  and  _603
REMARK  246  A    between atoms: _602  and  _605
REMARK  247  A    between atoms: _605  and  _606
REMARK  248  A    between atoms: _611  and  _613
REMARK  249  A    between atoms: _613  and  _614
REMARK  250  A    between atoms: _613  and  _616
REMARK  251  A    between atoms: _616  and  _617
REMARK  252  A    between atoms: _617  and  _618
REMARK  253  A    between atoms: _618  and  _619
REMARK  254  A    between atoms: _619  and  _620
REMARK  255  A    between atoms: _624  and  _626
REMARK  256  A    between atoms: _626  and  _627
REMARK  257  A    between atoms: _626  and  _629
REMARK  258  A    between atoms: _629  and  _630
REMARK  259  A    between atoms: _640  and  _642
REMARK  260  A    between atoms: _642  and  _643
REMARK  261  A    between atoms: _646  and  _648
REMARK  262  A    between atoms: _648  and  _649
REMARK  263  A    between atoms: _648  and  _651
REMARK  264  A    between atoms: _651  and  _652
REMARK  265  A    between atoms: _652  and  _653
REMARK  266  A    between atoms: _656  and  _658
REMARK  267  A    between atoms: _658  and  _659
REMARK  268  A    between atoms: _658  and  _661
REMARK  269  A    between atoms: _661  and  _662
REMARK  270  A    between atoms: _662  and  _663
REMARK  271  A    between atoms: _666  and  _668
REMARK  272  A    between atoms: _668  and  _669
REMARK  273  A    between atoms: _668  and  _671
REMARK  274  A    between atoms: _671  and  _672
REMARK  275  A    between atoms: _672  and  _673
REMARK  276  A    between atoms: _673  and  _674
REMARK  277  A    between atoms: _683  and  _685
REMARK  278  A    between atoms: _685  and  _686
REMARK  279  A    between atoms: _685  and  _688
REMARK  280  A    between atoms: _688  and  _689
REMARK  281  A    between atoms: _692  and  _694
REMARK  282  A    between atoms: _694  and  _695
REMARK  283  A    between atoms: _694  and  _697
REMARK  284  A    between atoms: _697  and  _698
REMARK  285  A    between atoms: _698  and  _699
REMARK  286  A    between atoms: _699  and  _700
REMARK  287  A    between atoms: _709  and  _711
REMARK  288  A    between atoms: _711  and  _712
REMARK  289  A    between atoms: _715  and  _717
REMARK  290  A    between atoms: _717  and  _718
REMARK  291  A    between atoms: _717  and  _720
REMARK  292  A    between atoms: _720  and  _721
REMARK  293  A    between atoms: _726  and  _727
REMARK  294  A    between atoms: _729  and  _731
REMARK  295  A    between atoms: _731  and  _732
REMARK  296  A    between atoms: _731  and  _734
REMARK  297  A    between atoms: _734  and  _735
REMARK  298  A    between atoms: _738  and  _740
REMARK  299  A    between atoms: _740  and  _741
REMARK  300  A    between atoms: _740  and  _743
REMARK  301  A    between atoms: _743  and  _744
REMARK  302  A    between atoms: _747  and  _749
REMARK  303  A    between atoms: _749  and  _750
REMARK  304  A    between atoms: _749  and  _752
REMARK  305  A    between atoms: _752  and  _753
REMARK  306  A    between atoms: _754  and  _756
REMARK  307  A    between atoms: _756  and  _757
REMARK  308  A    between atoms: _756  and  _759
REMARK  309  A    between atoms: _762  and  _764
REMARK  310  A    between atoms: _764  and  _765
REMARK  311  A    between atoms: _764  and  _767
REMARK  312  A    between atoms: _767  and  _768
REMARK  313  A    between atoms: _768  and  _769
REMARK  314  A    between atoms: _772  and  _774
REMARK  315  A    between atoms: _774  and  _775
REMARK  316  A    between atoms: _774  and  _777
REMARK  317  A    between atoms: _777  and  _778
REMARK  318  A    between atoms: _788  and  _790
REMARK  319  A    between atoms: _790  and  _791
REMARK  320  A    between atoms: _790  and  _793
REMARK  321  A    between atoms: _793  and  _794
REMARK  322  A    between atoms: _797  and  _799
REMARK  323  A    between atoms: _799  and  _800
REMARK  324  A    between atoms: _799  and  _802
REMARK  325  A    between atoms: _802  and  _803
REMARK  326  A    between atoms: _808  and  _809
REMARK                            x       y       z     vdW  Elec       q    Type
REMARK                         _______ _______ _______ _____ _____    ______ ____
ROOT
ATOM      1  O   HOH     1      -7.732  -2.059  -4.540  0.00  0.00    +0.000 OA
ENDROOT
TORSDOF 0
REMARK  Name = ../refined-set-2016/3p9m/3p9m_pocket.pdb
REMARK  326 active torsions:
REMARK  status: ('A' for Active; 'I' for Inactive)
REMARK    1  A    between atoms: _1  and  _3
REMARK    2  A    between atoms: _3  and  _4
REMARK    3  A    between atoms: _3  and  _6
REMARK    4  A    between atoms: _6  and  _7
REMARK    5  A    between atoms: _10  and  _12
REMARK    6  A    between atoms: _12  and  _13
REMARK    7  A    between atoms: _12  and  _15
REMARK    8  A    between atoms: _15  and  _16
REMARK    9  A    between atoms: _16  and  _17
REMARK   10  A    between atoms: _17  and  _18
REMARK   11  A    between atoms: _27  and  _29
REMARK   12  A    between atoms: _29  and  _30
REMARK   13  A    between atoms: _29  and  _32
REMARK   14  A    between atoms: _32  and  _33
REMARK   15  A    between atoms: _38  and  _39
REMARK   16  A    between atoms: _41  and  _43
REMARK   17  A    between atoms: _43  and  _44
REMARK   18  A    between atoms: _43  and  _46
REMARK   19  A    between atoms: _46  and  _47
REMARK   20  A    between atoms: _53  and  _55
REMARK   21  A    between atoms: _55  and  _56
REMARK   22  A    between atoms: _55  and  _58
REMARK   23  A    between atoms: _61  and  _63
REMARK   24  A    between atoms: _63  and  _64
REMARK   25  A    between atoms: _63  and  _66
REMARK   26  A    between atoms: _66  and  _67
REMARK   27  A    between atoms: _70  and  _72
REMARK   28  A    between atoms: _72  and  _73
REMARK   29  A    between atoms: _72  and  _75
REMARK   30  A    between atoms: _75  and  _76
REMARK   31  A    between atoms: _81  and  _82
REMARK   32  A    between atoms: _84  and  _86
REMARK   33  A    between atoms: _86  and  _87
REMARK   34  A    between atoms: _86  and  _89
REMARK   35  A    between atoms: _89  and  _90
REMARK   36  A    between atoms: _90  and  _91
REMARK   37  A    between atoms: _93  and  _95
REMARK   38  A    between atoms: _95  and  _96
REMARK   39  A    between atoms: _95  and  _98
REMARK   40  A    between atoms: _98  and  _99
REMARK   41  A    between atoms: _99  and  _100
REMARK   42  A    between atoms: _103  and  _105
REMARK   43  A    between atoms: _105  and  _106
REMARK   44  A    between atoms: _105  and  _108
REMARK   45  A    between atoms: _111  and  _113
REMARK   46  A    between atoms: _113  and  _114
REMARK   47  A    between atoms: _116  and  _118
REMARK   48  A    between atoms: _118  and  _119
REMARK   49  A    between atoms: _118  and  _121
REMARK   50  A    between atoms: _121  and  _122
REMARK   51  A    between atoms: _128  and  _130
REMARK   52  A    between atoms: _130  and  _131
REMARK   53  A    between atoms: _130  and  _133
REMARK   54  A    between atoms: _136  and  _138
REMARK   55  A    between atoms: _138  and  _139
REMARK   56  A    between atoms: _138  and  _141
REMARK   57  A    between atoms: _141  and  _142
REMARK   58  A    between atoms: _148  and  _150
REMARK   59  A    between atoms: _150  and  _151
REMARK   60  A    between atoms: _150  and  _153
REMARK   61  A    between atoms: _153  and  _154
REMARK   62  A    between atoms: _159  and  _160
REMARK   63  A    between atoms: _162  and  _164
REMARK   64  A    between atoms: _164  and  _165
REMARK   65  A    between atoms: _164  and  _167
REMARK   66  A    between atoms: _167  and  _168
REMARK   67  A    between atoms: _168  and  _169
REMARK   68  A    between atoms: _171  and  _173
REMARK   69  A    between atoms: _173  and  _174
REMARK   70  A    between atoms: _173  and  _176
REMARK   71  A    between atoms: _176  and  _177
REMARK   72  A    between atoms: _182  and  _183
REMARK   73  A    between atoms: _185  and  _187
REMARK   74  A    between atoms: _187  and  _188
REMARK   75  A    between atoms: _187  and  _190
REMARK   76  A    between atoms: _190  and  _191
REMARK   77  A    between atoms: _191  and  _192
REMARK   78  A    between atoms: _192  and  _193
REMARK   79  A    between atoms: _202  and  _204
REMARK   80  A    between atoms: _204  and  _205
REMARK   81  A    between atoms: _204  and  _207
REMARK   82  A    between atoms: _207  and  _208
REMARK   83  A    between atoms: _208  and  _209
REMARK   84  A    between atoms: _212  and  _214
REMARK   85  A    between atoms: _214  and  _215
REMARK   86  A    between atoms: _214  and  _217
REMARK   87  A    between atoms: _217  and  _218
REMARK   88  A    between atoms: _218  and  _219
REMARK   89  A    between atoms: _219  and  _220
REMARK   90  A    between atoms: _220  and  _221
REMARK   91  A    between atoms: _225  and  _227
REMARK   92  A    between atoms: _227  and  _228
REMARK   93  A    between atoms: _231  and  _233
REMARK   94  A    between atoms: _233  and  _234
REMARK   95  A    between atoms: _236  and  _238
REMARK   96  A    between atoms: _238  and  _239
REMARK   97  A    between atoms: _238  and  _241
REMARK   98  A    between atoms: _241  and  _242
REMARK   99  A    between atoms: _247  and  _249
REMARK  100  A    between atoms: _249  and  _250
REMARK  101  A    between atoms: _249  and  _252
REMARK  102  A    between atoms: _252  and  _253
REMARK  103  A    between atoms: _253  and  _254
REMARK  104  A    between atoms: _257  and  _259
REMARK  105  A    between atoms: _259  and  _260
REMARK  106  A    between atoms: _259  and  _262
REMARK  107  A    between atoms: _262  and  _263
REMARK  108  A    between atoms: _263  and  _264
REMARK  109  A    between atoms: _269  and  _271
REMARK  110  A    between atoms: _271  and  _272
REMARK  111  A    between atoms: _271  and  _274
REMARK  112  A    between atoms: _274  and  _275
REMARK  113  A    between atoms: _277  and  _279
REMARK  114  A    between atoms: _279  and  _280
REMARK  115  A    between atoms: _279  and  _282
REMARK  116  A    between atoms: _282  and  _283
REMARK  117  A    between atoms: _289  and  _291
REMARK  118  A    between atoms: _291  and  _292
REMARK  119  A    between atoms: _291  and  _294
REMARK  120  A    between atoms: _294  and  _295
REMARK  121  A    between atoms: _295  and  _296
REMARK  122  A    between atoms: _296  and  _297
REMARK  123  A    between atoms: _306  and  _308
REMARK  124  A    between atoms: _308  and  _309
REMARK  125  A    between atoms: _308  and  _311
REMARK  126  A    between atoms: _314  and  _316
REMARK  127  A    between atoms: _316  and  _317
REMARK  128  A    between atoms: _316  and  _319
REMARK  129  A    between atoms: _319  and  _320
REMARK  130  A    between atoms: _323  and  _325
REMARK  131  A    between atoms: _325  and  _326
REMARK  132  A    between atoms: _325  and  _328
REMARK  133  A    between atoms: _328  and  _329
REMARK  134  A    between atoms: _332  and  _334
REMARK  135  A    between atoms: _334  and  _335
REMARK  136  A    between atoms: _334  and  _337
REMARK  137  A    between atoms: _337  and  _338
REMARK  138  A    between atoms: _338  and  _339
REMARK  139  A    between atoms: _339  and  _340
REMARK  140  A    between atoms: _349  and  _351
REMARK  141  A    between atoms: _351  and  _352
REMARK  142  A    between atoms: _351  and  _354
REMARK  143  A    between atoms: _354  and  _355
REMARK  144  A    between atoms: _358  and  _360
REMARK  145  A    between atoms: _360  and  _361
REMARK  146  A    between atoms: _360  and  _363
REMARK  147  A    between atoms: _363  and  _364
REMARK  148  A    between atoms: _367  and  _369
REMARK  149  A    between atoms: _369  and  _370
REMARK  150  A    between atoms: _369  and  _372
REMARK  151  A    between atoms: _372  and  _373
REMARK  152  A    between atoms: _378  and  _379
REMARK  153  A    between atoms: _381  and  _383
REMARK  154  A    between atoms: _383  and  _384
REMARK  155  A    between atoms: _383  and  _386
REMARK  156  A    between atoms: _386  and  _387
REMARK  157  A    between atoms: _392  and  _393
REMARK  158  A    between atoms: _395  and  _397
REMARK  159  A    between atoms: _397  and  _398
REMARK  160  A    between atoms: _397  and  _400
REMARK  161  A    between atoms: _400  and  _401
REMARK  162  A    between atoms: _404  and  _406
REMARK  163  A    between atoms: _406  and  _407
REMARK  164  A    between atoms: _406  and  _409
REMARK  165  A    between atoms: _409  and  _410
REMARK  166  A    between atoms: _410  and  _411
REMARK  167  A    between atoms: _416  and  _418
REMARK  168  A    between atoms: _418  and  _419
REMARK  169  A    between atoms: _418  and  _421
REMARK  170  A    between atoms: _424  and  _426
REMARK  171  A    between atoms: _426  and  _427
REMARK  172  A    between atoms: _426  and  _429
REMARK  173  A    between atoms: _429  and  _430
REMARK  174  A    between atoms: _433  and  _435
REMARK  175  A    between atoms: _435  and  _436
REMARK  176  A    between atoms: _435  and  _438
REMARK  177  A    between atoms: _438  and  _439
REMARK  178  A    between atoms: _441  and  _443
REMARK  179  A    between atoms: _443  and  _444
REMARK  180  A    between atoms: _446  and  _448
REMARK  181  A    between atoms: _448  and  _449
REMARK  182  A    between atoms: _448  and  _451
REMARK  183  A    between atoms: _451  and  _452
REMARK  184  A    between atoms: _452  and  _753
REMARK  185  A    between atoms: _453  and  _455
REMARK  186  A    between atoms: _455  and  _456
REMARK  187  A    between atoms: _455  and  _458
REMARK  188  A    between atoms: _458  and  _459
REMARK  189  A    between atoms: _464  and  _465
REMARK  190  A    between atoms: _467  and  _469
REMARK  191  A    between atoms: _469  and  _470
REMARK  192  A    between atoms: _469  and  _472
REMARK  193  A    between atoms: _472  and  _473
REMARK  194  A    between atoms: _473  and  _474
REMARK  195  A    between atoms: _479  and  _481
REMARK  196  A    between atoms: _481  and  _482
REMARK  197  A    between atoms: _481  and  _484
REMARK  198  A    between atoms: _484  and  _485
REMARK  199  A    between atoms: _485  and  _486
REMARK  200  A    between atoms: _491  and  _493
REMARK  201  A    between atoms: _493  and  _494
REMARK  202  A    between atoms: _493  and  _496
REMARK  203  A    between atoms: _496  and  _497
REMARK  204  A    between atoms: _502  and  _503
REMARK  205  A    between atoms: _505  and  _507
REMARK  206  A    between atoms: _507  and  _508
REMARK  207  A    between atoms: _511  and  _513
REMARK  208  A    between atoms: _513  and  _514
REMARK  209  A    between atoms: _513  and  _516
REMARK  210  A    between atoms: _516  and  _517
REMARK  211  A    between atoms: _522  and  _523
REMARK  212  A    between atoms: _525  and  _527
REMARK  213  A    between atoms: _527  and  _528
REMARK  214  A    between atoms: _527  and  _530
REMARK  215  A    between atoms: _530  and  _531
REMARK  216  A    between atoms: _536  and  _537
REMARK  217  A    between atoms: _539  and  _541
REMARK  218  A    between atoms: _541  and  _542
REMARK  219  A    between atoms: _541  and  _544
REMARK  220  A    between atoms: _544  and  _545
REMARK  221  A    between atoms: _548  and  _550
REMARK  222  A    between atoms: _550  and  _551
REMARK  223  A    between atoms: _554  and  _556
REMARK  224  A    between atoms: _556  and  _557
REMARK  225  A    between atoms: _560  and  _562
REMARK  226  A    between atoms: _562  and  _563
REMARK  227  A    between atoms: _562  and  _565
REMARK  228  A    between atoms: _565  and  _566
REMARK  229  A    between atoms: _569  and  _571
REMARK  230  A    between atoms: _571  and  _572
REMARK  231  A    between atoms: _571  and  _574
REMARK  232  A    between atoms: _574  and  _575
REMARK  233  A    between atoms: _578  and  _580
REMARK  234  A    between atoms: _580  and  _581
REMARK  235  A    between atoms: _580  and  _583
REMARK  236  A    between atoms: _583  and  _584
REMARK  237  A    between atoms: _587  and  _589
REMARK  238  A    between atoms: _589  and  _590
REMARK  239  A    between atoms: _589  and  _592
REMARK  240  A    between atoms: _592  and  _593
REMARK  241  A    between atoms: _593  and  _594
REMARK  242  A    between atoms: _594  and  _595
REMARK  243  A    between atoms: _595  and  _596
REMARK  244  A    between atoms: _600  and  _602
REMARK  245  A    between atoms: _602  and  _603
REMARK  246  A    between atoms: _602  and  _605
REMARK  247  A    between atoms: _605  and  _606
REMARK  248  A    between atoms: _611  and  _613
REMARK  249  A    between atoms: _613  and  _614
REMARK  250  A    between atoms: _613  and  _616
REMARK  251  A    between atoms: _616  and  _617
REMARK  252  A    between atoms: _617  and  _618
REMARK  253  A    between atoms: _618  and  _619
REMARK  254  A    between atoms: _619  and  _620
REMARK  255  A    between atoms: _624  and  _626
REMARK  256  A    between atoms: _626  and  _627
REMARK  257  A    between atoms: _626  and  _629
REMARK  258  A    between atoms: _629  and  _630
REMARK  259  A    between atoms: _640  and  _642
REMARK  260  A    between atoms: _642  and  _643
REMARK  261  A    between atoms: _646  and  _648
REMARK  262  A    between atoms: _648  and  _649
REMARK  263  A    between atoms: _648  and  _651
REMARK  264  A    between atoms: _651  and  _652
REMARK  265  A    between atoms: _652  and  _653
REMARK  266  A    between atoms: _656  and  _658
REMARK  267  A    between atoms: _658  and  _659
REMARK  268  A    between atoms: _658  and  _661
REMARK  269  A    between atoms: _661  and  _662
REMARK  270  A    between atoms: _662  and  _663
REMARK  271  A    between atoms: _666  and  _668
REMARK  272  A    between atoms: _668  and  _669
REMARK  273  A    between atoms: _668  and  _671
REMARK  274  A    between atoms: _671  and  _672
REMARK  275  A    between atoms: _672  and  _673
REMARK  276  A    between atoms: _673  and  _674
REMARK  277  A    between atoms: _683  and  _685
REMARK  278  A    between atoms: _685  and  _686
REMARK  279  A    between atoms: _685  and  _688
REMARK  280  A    between atoms: _688  and  _689
REMARK  281  A    between atoms: _692  and  _694
REMARK  282  A    between atoms: _694  and  _695
REMARK  283  A    between atoms: _694  and  _697
REMARK  284  A    between atoms: _697  and  _698
REMARK  285  A    between atoms: _698  and  _699
REMARK  286  A    between atoms: _699  and  _700
REMARK  287  A    between atoms: _709  and  _711
REMARK  288  A    between atoms: _711  and  _712
REMARK  289  A    between atoms: _715  and  _717
REMARK  290  A    between atoms: _717  and  _718
REMARK  291  A    between atoms: _717  and  _720
REMARK  292  A    between atoms: _720  and  _721
REMARK  293  A    between atoms: _726  and  _727
REMARK  294  A    between atoms: _729  and  _731
REMARK  295  A    between atoms: _731  and  _732
REMARK  296  A    between atoms: _731  and  _734
REMARK  297  A    between atoms: _734  and  _735
REMARK  298  A    between atoms: _738  and  _740
REMARK  299  A    between atoms: _740  and  _741
REMARK  300  A    between atoms: _740  and  _743
REMARK  301  A    between atoms: _743  and  _744
REMARK  302  A    between atoms: _747  and  _749
REMARK  303  A    between atoms: _749  and  _750
REMARK  304  A    between atoms: _749  and  _752
REMARK  305  A    between atoms: _752  and  _753
REMARK  306  A    between atoms: _754  and  _756
REMARK  307  A    between atoms: _756  and  _757
REMARK  308  A    between atoms: _756  and  _759
REMARK  309  A    between atoms: _762  and  _764
REMARK  310  A    between atoms: _764  and  _765
REMARK  311  A    between atoms: _764  and  _767
REMARK  312  A    between atoms: _767  and  _768
REMARK  313  A    between atoms: _768  and  _769
REMARK  314  A    between atoms: _772  and  _774
REMARK  315  A    between atoms: _774  and  _775
REMARK  316  A    between atoms: _774  and  _777
REMARK  317  A    between atoms: _777  and  _778
REMARK  318  A    between atoms: _788  and  _790
REMARK  319  A    between atoms: _790  and  _791
REMARK  320  A    between atoms: _790  and  _793
REMARK  321  A    between atoms: _793  and  _794
REMARK  322  A    between atoms: _797  and  _799
REMARK  323  A    between atoms: _799  and  _800
REMARK  324  A    between atoms: _799  and  _802
REMARK  325  A    between atoms: _802  and  _803
REMARK  326  A    between atoms: _808  and  _809
REMARK                            x       y       z     vdW  Elec       q    Type
REMARK                         _______ _______ _______ _____ _____    ______ ____
ROOT
ATOM      1  O   HOH     1      -9.782   6.634  -9.459  0.00  0.00    +0.000 OA
ENDROOT
TORSDOF 0
REMARK  Name = ../refined-set-2016/3p9m/3p9m_pocket.pdb
REMARK  326 active torsions:
REMARK  status: ('A' for Active; 'I' for Inactive)
REMARK    1  A    between atoms: _1  and  _3
REMARK    2  A    between atoms: _3  and  _4
REMARK    3  A    between atoms: _3  and  _6
REMARK    4  A    between atoms: _6  and  _7
REMARK    5  A    between atoms: _10  and  _12
REMARK    6  A    between atoms: _12  and  _13
REMARK    7  A    between atoms: _12  and  _15
REMARK    8  A    between atoms: _15  and  _16
REMARK    9  A    between atoms: _16  and  _17
REMARK   10  A    between atoms: _17  and  _18
REMARK   11  A    between atoms: _27  and  _29
REMARK   12  A    between atoms: _29  and  _30
REMARK   13  A    between atoms: _29  and  _32
REMARK   14  A    between atoms: _32  and  _33
REMARK   15  A    between atoms: _38  and  _39
REMARK   16  A    between atoms: _41  and  _43
REMARK   17  A    between atoms: _43  and  _44
REMARK   18  A    between atoms: _43  and  _46
REMARK   19  A    between atoms: _46  and  _47
REMARK   20  A    between atoms: _53  and  _55
REMARK   21  A    between atoms: _55  and  _56
REMARK   22  A    between atoms: _55  and  _58
REMARK   23  A    between atoms: _61  and  _63
REMARK   24  A    between atoms: _63  and  _64
REMARK   25  A    between atoms: _63  and  _66
REMARK   26  A    between atoms: _66  and  _67
REMARK   27  A    between atoms: _70  and  _72
REMARK   28  A    between atoms: _72  and  _73
REMARK   29  A    between atoms: _72  and  _75
REMARK   30  A    between atoms: _75  and  _76
REMARK   31  A    between atoms: _81  and  _82
REMARK   32  A    between atoms: _84  and  _86
REMARK   33  A    between atoms: _86  and  _87
REMARK   34  A    between atoms: _86  and  _89
REMARK   35  A    between atoms: _89  and  _90
REMARK   36  A    between atoms: _90  and  _91
REMARK   37  A    between atoms: _93  and  _95
REMARK   38  A    between atoms: _95  and  _96
REMARK   39  A    between atoms: _95  and  _98
REMARK   40  A    between atoms: _98  and  _99
REMARK   41  A    between atoms: _99  and  _100
REMARK   42  A    between atoms: _103  and  _105
REMARK   43  A    between atoms: _105  and  _106
REMARK   44  A    between atoms: _105  and  _108
REMARK   45  A    between atoms: _111  and  _113
REMARK   46  A    between atoms: _113  and  _114
REMARK   47  A    between atoms: _116  and  _118
REMARK   48  A    between atoms: _118  and  _119
REMARK   49  A    between atoms: _118  and  _121
REMARK   50  A    between atoms: _121  and  _122
REMARK   51  A    between atoms: _128  and  _130
REMARK   52  A    between atoms: _130  and  _131
REMARK   53  A    between atoms: _130  and  _133
REMARK   54  A    between atoms: _136  and  _138
REMARK   55  A    between atoms: _138  and  _139
REMARK   56  A    between atoms: _138  and  _141
REMARK   57  A    between atoms: _141  and  _142
REMARK   58  A    between atoms: _148  and  _150
REMARK   59  A    between atoms: _150  and  _151
REMARK   60  A    between atoms: _150  and  _153
REMARK   61  A    between atoms: _153  and  _154
REMARK   62  A    between atoms: _159  and  _160
REMARK   63  A    between atoms: _162  and  _164
REMARK   64  A    between atoms: _164  and  _165
REMARK   65  A    between atoms: _164  and  _167
REMARK   66  A    between atoms: _167  and  _168
REMARK   67  A    between atoms: _168  and  _169
REMARK   68  A    between atoms: _171  and  _173
REMARK   69  A    between atoms: _173  and  _174
REMARK   70  A    between atoms: _173  and  _176
REMARK   71  A    between atoms: _176  and  _177
REMARK   72  A    between atoms: _182  and  _183
REMARK   73  A    between atoms: _185  and  _187
REMARK   74  A    between atoms: _187  and  _188
REMARK   75  A    between atoms: _187  and  _190
REMARK   76  A    between atoms: _190  and  _191
REMARK   77  A    between atoms: _191  and  _192
REMARK   78  A    between atoms: _192  and  _193
REMARK   79  A    between atoms: _202  and  _204
REMARK   80  A    between atoms: _204  and  _205
REMARK   81  A    between atoms: _204  and  _207
REMARK   82  A    between atoms: _207  and  _208
REMARK   83  A    between atoms: _208  and  _209
REMARK   84  A    between atoms: _212  and  _214
REMARK   85  A    between atoms: _214  and  _215
REMARK   86  A    between atoms: _214  and  _217
REMARK   87  A    between atoms: _217  and  _218
REMARK   88  A    between atoms: _218  and  _219
REMARK   89  A    between atoms: _219  and  _220
REMARK   90  A    between atoms: _220  and  _221
REMARK   91  A    between atoms: _225  and  _227
REMARK   92  A    between atoms: _227  and  _228
REMARK   93  A    between atoms: _231  and  _233
REMARK   94  A    between atoms: _233  and  _234
REMARK   95  A    between atoms: _236  and  _238
REMARK   96  A    between atoms: _238  and  _239
REMARK   97  A    between atoms: _238  and  _241
REMARK   98  A    between atoms: _241  and  _242
REMARK   99  A    between atoms: _247  and  _249
REMARK  100  A    between atoms: _249  and  _250
REMARK  101  A    between atoms: _249  and  _252
REMARK  102  A    between atoms: _252  and  _253
REMARK  103  A    between atoms: _253  and  _254
REMARK  104  A    between atoms: _257  and  _259
REMARK  105  A    between atoms: _259  and  _260
REMARK  106  A    between atoms: _259  and  _262
REMARK  107  A    between atoms: _262  and  _263
REMARK  108  A    between atoms: _263  and  _264
REMARK  109  A    between atoms: _269  and  _271
REMARK  110  A    between atoms: _271  and  _272
REMARK  111  A    between atoms: _271  and  _274
REMARK  112  A    between atoms: _274  and  _275
REMARK  113  A    between atoms: _277  and  _279
REMARK  114  A    between atoms: _279  and  _280
REMARK  115  A    between atoms: _279  and  _282
REMARK  116  A    between atoms: _282  and  _283
REMARK  117  A    between atoms: _289  and  _291
REMARK  118  A    between atoms: _291  and  _292
REMARK  119  A    between atoms: _291  and  _294
REMARK  120  A    between atoms: _294  and  _295
REMARK  121  A    between atoms: _295  and  _296
REMARK  122  A    between atoms: _296  and  _297
REMARK  123  A    between atoms: _306  and  _308
REMARK  124  A    between atoms: _308  and  _309
REMARK  125  A    between atoms: _308  and  _311
REMARK  126  A    between atoms: _314  and  _316
REMARK  127  A    between atoms: _316  and  _317
REMARK  128  A    between atoms: _316  and  _319
REMARK  129  A    between atoms: _319  and  _320
REMARK  130  A    between atoms: _323  and  _325
REMARK  131  A    between atoms: _325  and  _326
REMARK  132  A    between atoms: _325  and  _328
REMARK  133  A    between atoms: _328  and  _329
REMARK  134  A    between atoms: _332  and  _334
REMARK  135  A    between atoms: _334  and  _335
REMARK  136  A    between atoms: _334  and  _337
REMARK  137  A    between atoms: _337  and  _338
REMARK  138  A    between atoms: _338  and  _339
REMARK  139  A    between atoms: _339  and  _340
REMARK  140  A    between atoms: _349  and  _351
REMARK  141  A    between atoms: _351  and  _352
REMARK  142  A    between atoms: _351  and  _354
REMARK  143  A    between atoms: _354  and  _355
REMARK  144  A    between atoms: _358  and  _360
REMARK  145  A    between atoms: _360  and  _361
REMARK  146  A    between atoms: _360  and  _363
REMARK  147  A    between atoms: _363  and  _364
REMARK  148  A    between atoms: _367  and  _369
REMARK  149  A    between atoms: _369  and  _370
REMARK  150  A    between atoms: _369  and  _372
REMARK  151  A    between atoms: _372  and  _373
REMARK  152  A    between atoms: _378  and  _379
REMARK  153  A    between atoms: _381  and  _383
REMARK  154  A    between atoms: _383  and  _384
REMARK  155  A    between atoms: _383  and  _386
REMARK  156  A    between atoms: _386  and  _387
REMARK  157  A    between atoms: _392  and  _393
REMARK  158  A    between atoms: _395  and  _397
REMARK  159  A    between atoms: _397  and  _398
REMARK  160  A    between atoms: _397  and  _400
REMARK  161  A    between atoms: _400  and  _401
REMARK  162  A    between atoms: _404  and  _406
REMARK  163  A    between atoms: _406  and  _407
REMARK  164  A    between atoms: _406  and  _409
REMARK  165  A    between atoms: _409  and  _410
REMARK  166  A    between atoms: _410  and  _411
REMARK  167  A    between atoms: _416  and  _418
REMARK  168  A    between atoms: _418  and  _419
REMARK  169  A    between atoms: _418  and  _421
REMARK  170  A    between atoms: _424  and  _426
REMARK  171  A    between atoms: _426  and  _427
REMARK  172  A    between atoms: _426  and  _429
REMARK  173  A    between atoms: _429  and  _430
REMARK  174  A    between atoms: _433  and  _435
REMARK  175  A    between atoms: _435  and  _436
REMARK  176  A    between atoms: _435  and  _438
REMARK  177  A    between atoms: _438  and  _439
REMARK  178  A    between atoms: _441  and  _443
REMARK  179  A    between atoms: _443  and  _444
REMARK  180  A    between atoms: _446  and  _448
REMARK  181  A    between atoms: _448  and  _449
REMARK  182  A    between atoms: _448  and  _451
REMARK  183  A    between atoms: _451  and  _452
REMARK  184  A    between atoms: _452  and  _753
REMARK  185  A    between atoms: _453  and  _455
REMARK  186  A    between atoms: _455  and  _456
REMARK  187  A    between atoms: _455  and  _458
REMARK  188  A    between atoms: _458  and  _459
REMARK  189  A    between atoms: _464  and  _465
REMARK  190  A    between atoms: _467  and  _469
REMARK  191  A    between atoms: _469  and  _470
REMARK  192  A    between atoms: _469  and  _472
REMARK  193  A    between atoms: _472  and  _473
REMARK  194  A    between atoms: _473  and  _474
REMARK  195  A    between atoms: _479  and  _481
REMARK  196  A    between atoms: _481  and  _482
REMARK  197  A    between atoms: _481  and  _484
REMARK  198  A    between atoms: _484  and  _485
REMARK  199  A    between atoms: _485  and  _486
REMARK  200  A    between atoms: _491  and  _493
REMARK  201  A    between atoms: _493  and  _494
REMARK  202  A    between atoms: _493  and  _496
REMARK  203  A    between atoms: _496  and  _497
REMARK  204  A    between atoms: _502  and  _503
REMARK  205  A    between atoms: _505  and  _507
REMARK  206  A    between atoms: _507  and  _508
REMARK  207  A    between atoms: _511  and  _513
REMARK  208  A    between atoms: _513  and  _514
REMARK  209  A    between atoms: _513  and  _516
REMARK  210  A    between atoms: _516  and  _517
REMARK  211  A    between atoms: _522  and  _523
REMARK  212  A    between atoms: _525  and  _527
REMARK  213  A    between atoms: _527  and  _528
REMARK  214  A    between atoms: _527  and  _530
REMARK  215  A    between atoms: _530  and  _531
REMARK  216  A    between atoms: _536  and  _537
REMARK  217  A    between atoms: _539  and  _541
REMARK  218  A    between atoms: _541  and  _542
REMARK  219  A    between atoms: _541  and  _544
REMARK  220  A    between atoms: _544  and  _545
REMARK  221  A    between atoms: _548  and  _550
REMARK  222  A    between atoms: _550  and  _551
REMARK  223  A    between atoms: _554  and  _556
REMARK  224  A    between atoms: _556  and  _557
REMARK  225  A    between atoms: _560  and  _562
REMARK  226  A    between atoms: _562  and  _563
REMARK  227  A    between atoms: _562  and  _565
REMARK  228  A    between atoms: _565  and  _566
REMARK  229  A    between atoms: _569  and  _571
REMARK  230  A    between atoms: _571  and  _572
REMARK  231  A    between atoms: _571  and  _574
REMARK  232  A    between atoms: _574  and  _575
REMARK  233  A    between atoms: _578  and  _580
REMARK  234  A    between atoms: _580  and  _581
REMARK  235  A    between atoms: _580  and  _583
REMARK  236  A    between atoms: _583  and  _584
REMARK  237  A    between atoms: _587  and  _589
REMARK  238  A    between atoms: _589  and  _590
REMARK  239  A    between atoms: _589  and  _592
REMARK  240  A    between atoms: _592  and  _593
REMARK  241  A    between atoms: _593  and  _594
REMARK  242  A    between atoms: _594  and  _595
REMARK  243  A    between atoms: _595  and  _596
REMARK  244  A    between atoms: _600  and  _602
REMARK  245  A    between atoms: _602  and  _603
REMARK  246  A    between atoms: _602  and  _605
REMARK  247  A    between atoms: _605  and  _606
REMARK  248  A    between atoms: _611  and  _613
REMARK  249  A    between atoms: _613  and  _614
REMARK  250  A    between atoms: _613  and  _616
REMARK  251  A    between atoms: _616  and  _617
REMARK  252  A    between atoms: _617  and  _618
REMARK  253  A    between atoms: _618  and  _619
REMARK  254  A    between atoms: _619  and  _620
REMARK  255  A    between atoms: _624  and  _626
REMARK  256  A    between atoms: _626  and  _627
REMARK  257  A    between atoms: _626  and  _629
REMARK  258  A    between atoms: _629  and  _630
REMARK  259  A    between atoms: _640  and  _642
REMARK  260  A    between atoms: _642  and  _643
REMARK  261  A    between atoms: _646  and  _648
REMARK  262  A    between atoms: _648  and  _649
REMARK  263  A    between atoms: _648  and  _651
REMARK  264  A    between atoms: _651  and  _652
REMARK  265  A    between atoms: _652  and  _653
REMARK  266  A    between atoms: _656  and  _658
REMARK  267  A    between atoms: _658  and  _659
REMARK  268  A    between atoms: _658  and  _661
REMARK  269  A    between atoms: _661  and  _662
REMARK  270  A    between atoms: _662  and  _663
REMARK  271  A    between atoms: _666  and  _668
REMARK  272  A    between atoms: _668  and  _669
REMARK  273  A    between atoms: _668  and  _671
REMARK  274  A    between atoms: _671  and  _672
REMARK  275  A    between atoms: _672  and  _673
REMARK  276  A    between atoms: _673  and  _674
REMARK  277  A    between atoms: _683  and  _685
REMARK  278  A    between atoms: _685  and  _686
REMARK  279  A    between atoms: _685  and  _688
REMARK  280  A    between atoms: _688  and  _689
REMARK  281  A    between atoms: _692  and  _694
REMARK  282  A    between atoms: _694  and  _695
REMARK  283  A    between atoms: _694  and  _697
REMARK  284  A    between atoms: _697  and  _698
REMARK  285  A    between atoms: _698  and  _699
REMARK  286  A    between atoms: _699  and  _700
REMARK  287  A    between atoms: _709  and  _711
REMARK  288  A    between atoms: _711  and  _712
REMARK  289  A    between atoms: _715  and  _717
REMARK  290  A    between atoms: _717  and  _718
REMARK  291  A    between atoms: _717  and  _720
REMARK  292  A    between atoms: _720  and  _721
REMARK  293  A    between atoms: _726  and  _727
REMARK  294  A    between atoms: _729  and  _731
REMARK  295  A    between atoms: _731  and  _732
REMARK  296  A    between atoms: _731  and  _734
REMARK  297  A    between atoms: _734  and  _735
REMARK  298  A    between atoms: _738  and  _740
REMARK  299  A    between atoms: _740  and  _741
REMARK  300  A    between atoms: _740  and  _743
REMARK  301  A    between atoms: _743  and  _744
REMARK  302  A    between atoms: _747  and  _749
REMARK  303  A    between atoms: _749  and  _750
REMARK  304  A    between atoms: _749  and  _752
REMARK  305  A    between atoms: _752  and  _753
REMARK  306  A    between atoms: _754  and  _756
REMARK  307  A    between atoms: _756  and  _757
REMARK  308  A    between atoms: _756  and  _759
REMARK  309  A    between atoms: _762  and  _764
REMARK  310  A    between atoms: _764  and  _765
REMARK  311  A    between atoms: _764  and  _767
REMARK  312  A    between atoms: _767  and  _768
REMARK  313  A    between atoms: _768  and  _769
REMARK  314  A    between atoms: _772  and  _774
REMARK  315  A    between atoms: _774  and  _775
REMARK  316  A    between atoms: _774  and  _777
REMARK  317  A    between atoms: _777  and  _778
REMARK  318  A    between atoms: _788  and  _790
REMARK  319  A    between atoms: _790  and  _791
REMARK  320  A    between atoms: _790  and  _793
REMARK  321  A    between atoms: _793  and  _794
REMARK  322  A    between atoms: _797  and  _799
REMARK  323  A    between atoms: _799  and  _800
REMARK  324  A    between atoms: _799  and  _802
REMARK  325  A    between atoms: _802  and  _803
REMARK  326  A    between atoms: _808  and  _809
REMARK                            x       y       z     vdW  Elec       q    Type
REMARK                         _______ _______ _______ _____ _____    ______ ____
ROOT
ATOM      1  O   HOH     1      -4.387   6.438   4.622  0.00  0.00    +0.000 OA
ENDROOT
TORSDOF 0
REMARK  Name = ../refined-set-2016/3p9m/3p9m_pocket.pdb
REMARK  326 active torsions:
REMARK  status: ('A' for Active; 'I' for Inactive)
REMARK    1  A    between atoms: _1  and  _3
REMARK    2  A    between atoms: _3  and  _4
REMARK    3  A    between atoms: _3  and  _6
REMARK    4  A    between atoms: _6  and  _7
REMARK    5  A    between atoms: _10  and  _12
REMARK    6  A    between atoms: _12  and  _13
REMARK    7  A    between atoms: _12  and  _15
REMARK    8  A    between atoms: _15  and  _16
REMARK    9  A    between atoms: _16  and  _17
REMARK   10  A    between atoms: _17  and  _18
REMARK   11  A    between atoms: _27  and  _29
REMARK   12  A    between atoms: _29  and  _30
REMARK   13  A    between atoms: _29  and  _32
REMARK   14  A    between atoms: _32  and  _33
REMARK   15  A    between atoms: _38  and  _39
REMARK   16  A    between atoms: _41  and  _43
REMARK   17  A    between atoms: _43  and  _44
REMARK   18  A    between atoms: _43  and  _46
REMARK   19  A    between atoms: _46  and  _47
REMARK   20  A    between atoms: _53  and  _55
REMARK   21  A    between atoms: _55  and  _56
REMARK   22  A    between atoms: _55  and  _58
REMARK   23  A    between atoms: _61  and  _63
REMARK   24  A    between atoms: _63  and  _64
REMARK   25  A    between atoms: _63  and  _66
REMARK   26  A    between atoms: _66  and  _67
REMARK   27  A    between atoms: _70  and  _72
REMARK   28  A    between atoms: _72  and  _73
REMARK   29  A    between atoms: _72  and  _75
REMARK   30  A    between atoms: _75  and  _76
REMARK   31  A    between atoms: _81  and  _82
REMARK   32  A    between atoms: _84  and  _86
REMARK   33  A    between atoms: _86  and  _87
REMARK   34  A    between atoms: _86  and  _89
REMARK   35  A    between atoms: _89  and  _90
REMARK   36  A    between atoms: _90  and  _91
REMARK   37  A    between atoms: _93  and  _95
REMARK   38  A    between atoms: _95  and  _96
REMARK   39  A    between atoms: _95  and  _98
REMARK   40  A    between atoms: _98  and  _99
REMARK   41  A    between atoms: _99  and  _100
REMARK   42  A    between atoms: _103  and  _105
REMARK   43  A    between atoms: _105  and  _106
REMARK   44  A    between atoms: _105  and  _108
REMARK   45  A    between atoms: _111  and  _113
REMARK   46  A    between atoms: _113  and  _114
REMARK   47  A    between atoms: _116  and  _118
REMARK   48  A    between atoms: _118  and  _119
REMARK   49  A    between atoms: _118  and  _121
REMARK   50  A    between atoms: _121  and  _122
REMARK   51  A    between atoms: _128  and  _130
REMARK   52  A    between atoms: _130  and  _131
REMARK   53  A    between atoms: _130  and  _133
REMARK   54  A    between atoms: _136  and  _138
REMARK   55  A    between atoms: _138  and  _139
REMARK   56  A    between atoms: _138  and  _141
REMARK   57  A    between atoms: _141  and  _142
REMARK   58  A    between atoms: _148  and  _150
REMARK   59  A    between atoms: _150  and  _151
REMARK   60  A    between atoms: _150  and  _153
REMARK   61  A    between atoms: _153  and  _154
REMARK   62  A    between atoms: _159  and  _160
REMARK   63  A    between atoms: _162  and  _164
REMARK   64  A    between atoms: _164  and  _165
REMARK   65  A    between atoms: _164  and  _167
REMARK   66  A    between atoms: _167  and  _168
REMARK   67  A    between atoms: _168  and  _169
REMARK   68  A    between atoms: _171  and  _173
REMARK   69  A    between atoms: _173  and  _174
REMARK   70  A    between atoms: _173  and  _176
REMARK   71  A    between atoms: _176  and  _177
REMARK   72  A    between atoms: _182  and  _183
REMARK   73  A    between atoms: _185  and  _187
REMARK   74  A    between atoms: _187  and  _188
REMARK   75  A    between atoms: _187  and  _190
REMARK   76  A    between atoms: _190  and  _191
REMARK   77  A    between atoms: _191  and  _192
REMARK   78  A    between atoms: _192  and  _193
REMARK   79  A    between atoms: _202  and  _204
REMARK   80  A    between atoms: _204  and  _205
REMARK   81  A    between atoms: _204  and  _207
REMARK   82  A    between atoms: _207  and  _208
REMARK   83  A    between atoms: _208  and  _209
REMARK   84  A    between atoms: _212  and  _214
REMARK   85  A    between atoms: _214  and  _215
REMARK   86  A    between atoms: _214  and  _217
REMARK   87  A    between atoms: _217  and  _218
REMARK   88  A    between atoms: _218  and  _219
REMARK   89  A    between atoms: _219  and  _220
REMARK   90  A    between atoms: _220  and  _221
REMARK   91  A    between atoms: _225  and  _227
REMARK   92  A    between atoms: _227  and  _228
REMARK   93  A    between atoms: _231  and  _233
REMARK   94  A    between atoms: _233  and  _234
REMARK   95  A    between atoms: _236  and  _238
REMARK   96  A    between atoms: _238  and  _239
REMARK   97  A    between atoms: _238  and  _241
REMARK   98  A    between atoms: _241  and  _242
REMARK   99  A    between atoms: _247  and  _249
REMARK  100  A    between atoms: _249  and  _250
REMARK  101  A    between atoms: _249  and  _252
REMARK  102  A    between atoms: _252  and  _253
REMARK  103  A    between atoms: _253  and  _254
REMARK  104  A    between atoms: _257  and  _259
REMARK  105  A    between atoms: _259  and  _260
REMARK  106  A    between atoms: _259  and  _262
REMARK  107  A    between atoms: _262  and  _263
REMARK  108  A    between atoms: _263  and  _264
REMARK  109  A    between atoms: _269  and  _271
REMARK  110  A    between atoms: _271  and  _272
REMARK  111  A    between atoms: _271  and  _274
REMARK  112  A    between atoms: _274  and  _275
REMARK  113  A    between atoms: _277  and  _279
REMARK  114  A    between atoms: _279  and  _280
REMARK  115  A    between atoms: _279  and  _282
REMARK  116  A    between atoms: _282  and  _283
REMARK  117  A    between atoms: _289  and  _291
REMARK  118  A    between atoms: _291  and  _292
REMARK  119  A    between atoms: _291  and  _294
REMARK  120  A    between atoms: _294  and  _295
REMARK  121  A    between atoms: _295  and  _296
REMARK  122  A    between atoms: _296  and  _297
REMARK  123  A    between atoms: _306  and  _308
REMARK  124  A    between atoms: _308  and  _309
REMARK  125  A    between atoms: _308  and  _311
REMARK  126  A    between atoms: _314  and  _316
REMARK  127  A    between atoms: _316  and  _317
REMARK  128  A    between atoms: _316  and  _319
REMARK  129  A    between atoms: _319  and  _320
REMARK  130  A    between atoms: _323  and  _325
REMARK  131  A    between atoms: _325  and  _326
REMARK  132  A    between atoms: _325  and  _328
REMARK  133  A    between atoms: _328  and  _329
REMARK  134  A    between atoms: _332  and  _334
REMARK  135  A    between atoms: _334  and  _335
REMARK  136  A    between atoms: _334  and  _337
REMARK  137  A    between atoms: _337  and  _338
REMARK  138  A    between atoms: _338  and  _339
REMARK  139  A    between atoms: _339  and  _340
REMARK  140  A    between atoms: _349  and  _351
REMARK  141  A    between atoms: _351  and  _352
REMARK  142  A    between atoms: _351  and  _354
REMARK  143  A    between atoms: _354  and  _355
REMARK  144  A    between atoms: _358  and  _360
REMARK  145  A    between atoms: _360  and  _361
REMARK  146  A    between atoms: _360  and  _363
REMARK  147  A    between atoms: _363  and  _364
REMARK  148  A    between atoms: _367  and  _369
REMARK  149  A    between atoms: _369  and  _370
REMARK  150  A    between atoms: _369  and  _372
REMARK  151  A    between atoms: _372  and  _373
REMARK  152  A    between atoms: _378  and  _379
REMARK  153  A    between atoms: _381  and  _383
REMARK  154  A    between atoms: _383  and  _384
REMARK  155  A    between atoms: _383  and  _386
REMARK  156  A    between atoms: _386  and  _387
REMARK  157  A    between atoms: _392  and  _393
REMARK  158  A    between atoms: _395  and  _397
REMARK  159  A    between atoms: _397  and  _398
REMARK  160  A    between atoms: _397  and  _400
REMARK  161  A    between atoms: _400  and  _401
REMARK  162  A    between atoms: _404  and  _406
REMARK  163  A    between atoms: _406  and  _407
REMARK  164  A    between atoms: _406  and  _409
REMARK  165  A    between atoms: _409  and  _410
REMARK  166  A    between atoms: _410  and  _411
REMARK  167  A    between atoms: _416  and  _418
REMARK  168  A    between atoms: _418  and  _419
REMARK  169  A    between atoms: _418  and  _421
REMARK  170  A    between atoms: _424  and  _426
REMARK  171  A    between atoms: _426  and  _427
REMARK  172  A    between atoms: _426  and  _429
REMARK  173  A    between atoms: _429  and  _430
REMARK  174  A    between atoms: _433  and  _435
REMARK  175  A    between atoms: _435  and  _436
REMARK  176  A    between atoms: _435  and  _438
REMARK  177  A    between atoms: _438  and  _439
REMARK  178  A    between atoms: _441  and  _443
REMARK  179  A    between atoms: _443  and  _444
REMARK  180  A    between atoms: _446  and  _448
REMARK  181  A    between atoms: _448  and  _449
REMARK  182  A    between atoms: _448  and  _451
REMARK  183  A    between atoms: _451  and  _452
REMARK  184  A    between atoms: _452  and  _753
REMARK  185  A    between atoms: _453  and  _455
REMARK  186  A    between atoms: _455  and  _456
REMARK  187  A    between atoms: _455  and  _458
REMARK  188  A    between atoms: _458  and  _459
REMARK  189  A    between atoms: _464  and  _465
REMARK  190  A    between atoms: _467  and  _469
REMARK  191  A    between atoms: _469  and  _470
REMARK  192  A    between atoms: _469  and  _472
REMARK  193  A    between atoms: _472  and  _473
REMARK  194  A    between atoms: _473  and  _474
REMARK  195  A    between atoms: _479  and  _481
REMARK  196  A    between atoms: _481  and  _482
REMARK  197  A    between atoms: _481  and  _484
REMARK  198  A    between atoms: _484  and  _485
REMARK  199  A    between atoms: _485  and  _486
REMARK  200  A    between atoms: _491  and  _493
REMARK  201  A    between atoms: _493  and  _494
REMARK  202  A    between atoms: _493  and  _496
REMARK  203  A    between atoms: _496  and  _497
REMARK  204  A    between atoms: _502  and  _503
REMARK  205  A    between atoms: _505  and  _507
REMARK  206  A    between atoms: _507  and  _508
REMARK  207  A    between atoms: _511  and  _513
REMARK  208  A    between atoms: _513  and  _514
REMARK  209  A    between atoms: _513  and  _516
REMARK  210  A    between atoms: _516  and  _517
REMARK  211  A    between atoms: _522  and  _523
REMARK  212  A    between atoms: _525  and  _527
REMARK  213  A    between atoms: _527  and  _528
REMARK  214  A    between atoms: _527  and  _530
REMARK  215  A    between atoms: _530  and  _531
REMARK  216  A    between atoms: _536  and  _537
REMARK  217  A    between atoms: _539  and  _541
REMARK  218  A    between atoms: _541  and  _542
REMARK  219  A    between atoms: _541  and  _544
REMARK  220  A    between atoms: _544  and  _545
REMARK  221  A    between atoms: _548  and  _550
REMARK  222  A    between atoms: _550  and  _551
REMARK  223  A    between atoms: _554  and  _556
REMARK  224  A    between atoms: _556  and  _557
REMARK  225  A    between atoms: _560  and  _562
REMARK  226  A    between atoms: _562  and  _563
REMARK  227  A    between atoms: _562  and  _565
REMARK  228  A    between atoms: _565  and  _566
REMARK  229  A    between atoms: _569  and  _571
REMARK  230  A    between atoms: _571  and  _572
REMARK  231  A    between atoms: _571  and  _574
REMARK  232  A    between atoms: _574  and  _575
REMARK  233  A    between atoms: _578  and  _580
REMARK  234  A    between atoms: _580  and  _581
REMARK  235  A    between atoms: _580  and  _583
REMARK  236  A    between atoms: _583  and  _584
REMARK  237  A    between atoms: _587  and  _589
REMARK  238  A    between atoms: _589  and  _590
REMARK  239  A    between atoms: _589  and  _592
REMARK  240  A    between atoms: _592  and  _593
REMARK  241  A    between atoms: _593  and  _594
REMARK  242  A    between atoms: _594  and  _595
REMARK  243  A    between atoms: _595  and  _596
REMARK  244  A    between atoms: _600  and  _602
REMARK  245  A    between atoms: _602  and  _603
REMARK  246  A    between atoms: _602  and  _605
REMARK  247  A    between atoms: _605  and  _606
REMARK  248  A    between atoms: _611  and  _613
REMARK  249  A    between atoms: _613  and  _614
REMARK  250  A    between atoms: _613  and  _616
REMARK  251  A    between atoms: _616  and  _617
REMARK  252  A    between atoms: _617  and  _618
REMARK  253  A    between atoms: _618  and  _619
REMARK  254  A    between atoms: _619  and  _620
REMARK  255  A    between atoms: _624  and  _626
REMARK  256  A    between atoms: _626  and  _627
REMARK  257  A    between atoms: _626  and  _629
REMARK  258  A    between atoms: _629  and  _630
REMARK  259  A    between atoms: _640  and  _642
REMARK  260  A    between atoms: _642  and  _643
REMARK  261  A    between atoms: _646  and  _648
REMARK  262  A    between atoms: _648  and  _649
REMARK  263  A    between atoms: _648  and  _651
REMARK  264  A    between atoms: _651  and  _652
REMARK  265  A    between atoms: _652  and  _653
REMARK  266  A    between atoms: _656  and  _658
REMARK  267  A    between atoms: _658  and  _659
REMARK  268  A    between atoms: _658  and  _661
REMARK  269  A    between atoms: _661  and  _662
REMARK  270  A    between atoms: _662  and  _663
REMARK  271  A    between atoms: _666  and  _668
REMARK  272  A    between atoms: _668  and  _669
REMARK  273  A    between atoms: _668  and  _671
REMARK  274  A    between atoms: _671  and  _672
REMARK  275  A    between atoms: _672  and  _673
REMARK  276  A    between atoms: _673  and  _674
REMARK  277  A    between atoms: _683  and  _685
REMARK  278  A    between atoms: _685  and  _686
REMARK  279  A    between atoms: _685  and  _688
REMARK  280  A    between atoms: _688  and  _689
REMARK  281  A    between atoms: _692  and  _694
REMARK  282  A    between atoms: _694  and  _695
REMARK  283  A    between atoms: _694  and  _697
REMARK  284  A    between atoms: _697  and  _698
REMARK  285  A    between atoms: _698  and  _699
REMARK  286  A    between atoms: _699  and  _700
REMARK  287  A    between atoms: _709  and  _711
REMARK  288  A    between atoms: _711  and  _712
REMARK  289  A    between atoms: _715  and  _717
REMARK  290  A    between atoms: _717  and  _718
REMARK  291  A    between atoms: _717  and  _720
REMARK  292  A    between atoms: _720  and  _721
REMARK  293  A    between atoms: _726  and  _727
REMARK  294  A    between atoms: _729  and  _731
REMARK  295  A    between atoms: _731  and  _732
REMARK  296  A    between atoms: _731  and  _734
REMARK  297  A    between atoms: _734  and  _735
REMARK  298  A    between atoms: _738  and  _740
REMARK  299  A    between atoms: _740  and  _741
REMARK  300  A    between atoms: _740  and  _743
REMARK  301  A    between atoms: _743  and  _744
REMARK  302  A    between atoms: _747  and  _749
REMARK  303  A    between atoms: _749  and  _750
REMARK  304  A    between atoms: _749  and  _752
REMARK  305  A    between atoms: _752  and  _753
REMARK  306  A    between atoms: _754  and  _756
REMARK  307  A    between atoms: _756  and  _757
REMARK  308  A    between atoms: _756  and  _759
REMARK  309  A    between atoms: _762  and  _764
REMARK  310  A    between atoms: _764  and  _765
REMARK  311  A    between atoms: _764  and  _767
REMARK  312  A    between atoms: _767  and  _768
REMARK  313  A    between atoms: _768  and  _769
REMARK  314  A    between atoms: _772  and  _774
REMARK  315  A    between atoms: _774  and  _775
REMARK  316  A    between atoms: _774  and  _777
REMARK  317  A    between atoms: _777  and  _778
REMARK  318  A    between atoms: _788  and  _790
REMARK  319  A    between atoms: _790  and  _791
REMARK  320  A    between atoms: _790  and  _793
REMARK  321  A    between atoms: _793  and  _794
REMARK  322  A    between atoms: _797  and  _799
REMARK  323  A    between atoms: _799  and  _800
REMARK  324  A    between atoms: _799  and  _802
REMARK  325  A    between atoms: _802  and  _803
REMARK  326  A    between atoms: _808  and  _809
REMARK                            x       y       z     vdW  Elec       q    Type
REMARK                         _______ _______ _______ _____ _____    ______ ____
ROOT
ATOM      1  O   HOH     1      -4.344   0.950   0.972  0.00  0.00    +0.000 OA
ENDROOT
TORSDOF 0
REMARK  Name = ../refined-set-2016/3p9m/3p9m_pocket.pdb
REMARK  326 active torsions:
REMARK  status: ('A' for Active; 'I' for Inactive)
REMARK    1  A    between atoms: _1  and  _3
REMARK    2  A    between atoms: _3  and  _4
REMARK    3  A    between atoms: _3  and  _6
REMARK    4  A    between atoms: _6  and  _7
REMARK    5  A    between atoms: _10  and  _12
REMARK    6  A    between atoms: _12  and  _13
REMARK    7  A    between atoms: _12  and  _15
REMARK    8  A    between atoms: _15  and  _16
REMARK    9  A    between atoms: _16  and  _17
REMARK   10  A    between atoms: _17  and  _18
REMARK   11  A    between atoms: _27  and  _29
REMARK   12  A    between atoms: _29  and  _30
REMARK   13  A    between atoms: _29  and  _32
REMARK   14  A    between atoms: _32  and  _33
REMARK   15  A    between atoms: _38  and  _39
REMARK   16  A    between atoms: _41  and  _43
REMARK   17  A    between atoms: _43  and  _44
REMARK   18  A    between atoms: _43  and  _46
REMARK   19  A    between atoms: _46  and  _47
REMARK   20  A    between atoms: _53  and  _55
REMARK   21  A    between atoms: _55  and  _56
REMARK   22  A    between atoms: _55  and  _58
REMARK   23  A    between atoms: _61  and  _63
REMARK   24  A    between atoms: _63  and  _64
REMARK   25  A    between atoms: _63  and  _66
REMARK   26  A    between atoms: _66  and  _67
REMARK   27  A    between atoms: _70  and  _72
REMARK   28  A    between atoms: _72  and  _73
REMARK   29  A    between atoms: _72  and  _75
REMARK   30  A    between atoms: _75  and  _76
REMARK   31  A    between atoms: _81  and  _82
REMARK   32  A    between atoms: _84  and  _86
REMARK   33  A    between atoms: _86  and  _87
REMARK   34  A    between atoms: _86  and  _89
REMARK   35  A    between atoms: _89  and  _90
REMARK   36  A    between atoms: _90  and  _91
REMARK   37  A    between atoms: _93  and  _95
REMARK   38  A    between atoms: _95  and  _96
REMARK   39  A    between atoms: _95  and  _98
REMARK   40  A    between atoms: _98  and  _99
REMARK   41  A    between atoms: _99  and  _100
REMARK   42  A    between atoms: _103  and  _105
REMARK   43  A    between atoms: _105  and  _106
REMARK   44  A    between atoms: _105  and  _108
REMARK   45  A    between atoms: _111  and  _113
REMARK   46  A    between atoms: _113  and  _114
REMARK   47  A    between atoms: _116  and  _118
REMARK   48  A    between atoms: _118  and  _119
REMARK   49  A    between atoms: _118  and  _121
REMARK   50  A    between atoms: _121  and  _122
REMARK   51  A    between atoms: _128  and  _130
REMARK   52  A    between atoms: _130  and  _131
REMARK   53  A    between atoms: _130  and  _133
REMARK   54  A    between atoms: _136  and  _138
REMARK   55  A    between atoms: _138  and  _139
REMARK   56  A    between atoms: _138  and  _141
REMARK   57  A    between atoms: _141  and  _142
REMARK   58  A    between atoms: _148  and  _150
REMARK   59  A    between atoms: _150  and  _151
REMARK   60  A    between atoms: _150  and  _153
REMARK   61  A    between atoms: _153  and  _154
REMARK   62  A    between atoms: _159  and  _160
REMARK   63  A    between atoms: _162  and  _164
REMARK   64  A    between atoms: _164  and  _165
REMARK   65  A    between atoms: _164  and  _167
REMARK   66  A    between atoms: _167  and  _168
REMARK   67  A    between atoms: _168  and  _169
REMARK   68  A    between atoms: _171  and  _173
REMARK   69  A    between atoms: _173  and  _174
REMARK   70  A    between atoms: _173  and  _176
REMARK   71  A    between atoms: _176  and  _177
REMARK   72  A    between atoms: _182  and  _183
REMARK   73  A    between atoms: _185  and  _187
REMARK   74  A    between atoms: _187  and  _188
REMARK   75  A    between atoms: _187  and  _190
REMARK   76  A    between atoms: _190  and  _191
REMARK   77  A    between atoms: _191  and  _192
REMARK   78  A    between atoms: _192  and  _193
REMARK   79  A    between atoms: _202  and  _204
REMARK   80  A    between atoms: _204  and  _205
REMARK   81  A    between atoms: _204  and  _207
REMARK   82  A    between atoms: _207  and  _208
REMARK   83  A    between atoms: _208  and  _209
REMARK   84  A    between atoms: _212  and  _214
REMARK   85  A    between atoms: _214  and  _215
REMARK   86  A    between atoms: _214  and  _217
REMARK   87  A    between atoms: _217  and  _218
REMARK   88  A    between atoms: _218  and  _219
REMARK   89  A    between atoms: _219  and  _220
REMARK   90  A    between atoms: _220  and  _221
REMARK   91  A    between atoms: _225  and  _227
REMARK   92  A    between atoms: _227  and  _228
REMARK   93  A    between atoms: _231  and  _233
REMARK   94  A    between atoms: _233  and  _234
REMARK   95  A    between atoms: _236  and  _238
REMARK   96  A    between atoms: _238  and  _239
REMARK   97  A    between atoms: _238  and  _241
REMARK   98  A    between atoms: _241  and  _242
REMARK   99  A    between atoms: _247  and  _249
REMARK  100  A    between atoms: _249  and  _250
REMARK  101  A    between atoms: _249  and  _252
REMARK  102  A    between atoms: _252  and  _253
REMARK  103  A    between atoms: _253  and  _254
REMARK  104  A    between atoms: _257  and  _259
REMARK  105  A    between atoms: _259  and  _260
REMARK  106  A    between atoms: _259  and  _262
REMARK  107  A    between atoms: _262  and  _263
REMARK  108  A    between atoms: _263  and  _264
REMARK  109  A    between atoms: _269  and  _271
REMARK  110  A    between atoms: _271  and  _272
REMARK  111  A    between atoms: _271  and  _274
REMARK  112  A    between atoms: _274  and  _275
REMARK  113  A    between atoms: _277  and  _279
REMARK  114  A    between atoms: _279  and  _280
REMARK  115  A    between atoms: _279  and  _282
REMARK  116  A    between atoms: _282  and  _283
REMARK  117  A    between atoms: _289  and  _291
REMARK  118  A    between atoms: _291  and  _292
REMARK  119  A    between atoms: _291  and  _294
REMARK  120  A    between atoms: _294  and  _295
REMARK  121  A    between atoms: _295  and  _296
REMARK  122  A    between atoms: _296  and  _297
REMARK  123  A    between atoms: _306  and  _308
REMARK  124  A    between atoms: _308  and  _309
REMARK  125  A    between atoms: _308  and  _311
REMARK  126  A    between atoms: _314  and  _316
REMARK  127  A    between atoms: _316  and  _317
REMARK  128  A    between atoms: _316  and  _319
REMARK  129  A    between atoms: _319  and  _320
REMARK  130  A    between atoms: _323  and  _325
REMARK  131  A    between atoms: _325  and  _326
REMARK  132  A    between atoms: _325  and  _328
REMARK  133  A    between atoms: _328  and  _329
REMARK  134  A    between atoms: _332  and  _334
REMARK  135  A    between atoms: _334  and  _335
REMARK  136  A    between atoms: _334  and  _337
REMARK  137  A    between atoms: _337  and  _338
REMARK  138  A    between atoms: _338  and  _339
REMARK  139  A    between atoms: _339  and  _340
REMARK  140  A    between atoms: _349  and  _351
REMARK  141  A    between atoms: _351  and  _352
REMARK  142  A    between atoms: _351  and  _354
REMARK  143  A    between atoms: _354  and  _355
REMARK  144  A    between atoms: _358  and  _360
REMARK  145  A    between atoms: _360  and  _361
REMARK  146  A    between atoms: _360  and  _363
REMARK  147  A    between atoms: _363  and  _364
REMARK  148  A    between atoms: _367  and  _369
REMARK  149  A    between atoms: _369  and  _370
REMARK  150  A    between atoms: _369  and  _372
REMARK  151  A    between atoms: _372  and  _373
REMARK  152  A    between atoms: _378  and  _379
REMARK  153  A    between atoms: _381  and  _383
REMARK  154  A    between atoms: _383  and  _384
REMARK  155  A    between atoms: _383  and  _386
REMARK  156  A    between atoms: _386  and  _387
REMARK  157  A    between atoms: _392  and  _393
REMARK  158  A    between atoms: _395  and  _397
REMARK  159  A    between atoms: _397  and  _398
REMARK  160  A    between atoms: _397  and  _400
REMARK  161  A    between atoms: _400  and  _401
REMARK  162  A    between atoms: _404  and  _406
REMARK  163  A    between atoms: _406  and  _407
REMARK  164  A    between atoms: _406  and  _409
REMARK  165  A    between atoms: _409  and  _410
REMARK  166  A    between atoms: _410  and  _411
REMARK  167  A    between atoms: _416  and  _418
REMARK  168  A    between atoms: _418  and  _419
REMARK  169  A    between atoms: _418  and  _421
REMARK  170  A    between atoms: _424  and  _426
REMARK  171  A    between atoms: _426  and  _427
REMARK  172  A    between atoms: _426  and  _429
REMARK  173  A    between atoms: _429  and  _430
REMARK  174  A    between atoms: _433  and  _435
REMARK  175  A    between atoms: _435  and  _436
REMARK  176  A    between atoms: _435  and  _438
REMARK  177  A    between atoms: _438  and  _439
REMARK  178  A    between atoms: _441  and  _443
REMARK  179  A    between atoms: _443  and  _444
REMARK  180  A    between atoms: _446  and  _448
REMARK  181  A    between atoms: _448  and  _449
REMARK  182  A    between atoms: _448  and  _451
REMARK  183  A    between atoms: _451  and  _452
REMARK  184  A    between atoms: _452  and  _753
REMARK  185  A    between atoms: _453  and  _455
REMARK  186  A    between atoms: _455  and  _456
REMARK  187  A    between atoms: _455  and  _458
REMARK  188  A    between atoms: _458  and  _459
REMARK  189  A    between atoms: _464  and  _465
REMARK  190  A    between atoms: _467  and  _469
REMARK  191  A    between atoms: _469  and  _470
REMARK  192  A    between atoms: _469  and  _472
REMARK  193  A    between atoms: _472  and  _473
REMARK  194  A    between atoms: _473  and  _474
REMARK  195  A    between atoms: _479  and  _481
REMARK  196  A    between atoms: _481  and  _482
REMARK  197  A    between atoms: _481  and  _484
REMARK  198  A    between atoms: _484  and  _485
REMARK  199  A    between atoms: _485  and  _486
REMARK  200  A    between atoms: _491  and  _493
REMARK  201  A    between atoms: _493  and  _494
REMARK  202  A    between atoms: _493  and  _496
REMARK  203  A    between atoms: _496  and  _497
REMARK  204  A    between atoms: _502  and  _503
REMARK  205  A    between atoms: _505  and  _507
REMARK  206  A    between atoms: _507  and  _508
REMARK  207  A    between atoms: _511  and  _513
REMARK  208  A    between atoms: _513  and  _514
REMARK  209  A    between atoms: _513  and  _516
REMARK  210  A    between atoms: _516  and  _517
REMARK  211  A    between atoms: _522  and  _523
REMARK  212  A    between atoms: _525  and  _527
REMARK  213  A    between atoms: _527  and  _528
REMARK  214  A    between atoms: _527  and  _530
REMARK  215  A    between atoms: _530  and  _531
REMARK  216  A    between atoms: _536  and  _537
REMARK  217  A    between atoms: _539  and  _541
REMARK  218  A    between atoms: _541  and  _542
REMARK  219  A    between atoms: _541  and  _544
REMARK  220  A    between atoms: _544  and  _545
REMARK  221  A    between atoms: _548  and  _550
REMARK  222  A    between atoms: _550  and  _551
REMARK  223  A    between atoms: _554  and  _556
REMARK  224  A    between atoms: _556  and  _557
REMARK  225  A    between atoms: _560  and  _562
REMARK  226  A    between atoms: _562  and  _563
REMARK  227  A    between atoms: _562  and  _565
REMARK  228  A    between atoms: _565  and  _566
REMARK  229  A    between atoms: _569  and  _571
REMARK  230  A    between atoms: _571  and  _572
REMARK  231  A    between atoms: _571  and  _574
REMARK  232  A    between atoms: _574  and  _575
REMARK  233  A    between atoms: _578  and  _580
REMARK  234  A    between atoms: _580  and  _581
REMARK  235  A    between atoms: _580  and  _583
REMARK  236  A    between atoms: _583  and  _584
REMARK  237  A    between atoms: _587  and  _589
REMARK  238  A    between atoms: _589  and  _590
REMARK  239  A    between atoms: _589  and  _592
REMARK  240  A    between atoms: _592  and  _593
REMARK  241  A    between atoms: _593  and  _594
REMARK  242  A    between atoms: _594  and  _595
REMARK  243  A    between atoms: _595  and  _596
REMARK  244  A    between atoms: _600  and  _602
REMARK  245  A    between atoms: _602  and  _603
REMARK  246  A    between atoms: _602  and  _605
REMARK  247  A    between atoms: _605  and  _606
REMARK  248  A    between atoms: _611  and  _613
REMARK  249  A    between atoms: _613  and  _614
REMARK  250  A    between atoms: _613  and  _616
REMARK  251  A    between atoms: _616  and  _617
REMARK  252  A    between atoms: _617  and  _618
REMARK  253  A    between atoms: _618  and  _619
REMARK  254  A    between atoms: _619  and  _620
REMARK  255  A    between atoms: _624  and  _626
REMARK  256  A    between atoms: _626  and  _627
REMARK  257  A    between atoms: _626  and  _629
REMARK  258  A    between atoms: _629  and  _630
REMARK  259  A    between atoms: _640  and  _642
REMARK  260  A    between atoms: _642  and  _643
REMARK  261  A    between atoms: _646  and  _648
REMARK  262  A    between atoms: _648  and  _649
REMARK  263  A    between atoms: _648  and  _651
REMARK  264  A    between atoms: _651  and  _652
REMARK  265  A    between atoms: _652  and  _653
REMARK  266  A    between atoms: _656  and  _658
REMARK  267  A    between atoms: _658  and  _659
REMARK  268  A    between atoms: _658  and  _661
REMARK  269  A    between atoms: _661  and  _662
REMARK  270  A    between atoms: _662  and  _663
REMARK  271  A    between atoms: _666  and  _668
REMARK  272  A    between atoms: _668  and  _669
REMARK  273  A    between atoms: _668  and  _671
REMARK  274  A    between atoms: _671  and  _672
REMARK  275  A    between atoms: _672  and  _673
REMARK  276  A    between atoms: _673  and  _674
REMARK  277  A    between atoms: _683  and  _685
REMARK  278  A    between atoms: _685  and  _686
REMARK  279  A    between atoms: _685  and  _688
REMARK  280  A    between atoms: _688  and  _689
REMARK  281  A    between atoms: _692  and  _694
REMARK  282  A    between atoms: _694  and  _695
REMARK  283  A    between atoms: _694  and  _697
REMARK  284  A    between atoms: _697  and  _698
REMARK  285  A    between atoms: _698  and  _699
REMARK  286  A    between atoms: _699  and  _700
REMARK  287  A    between atoms: _709  and  _711
REMARK  288  A    between atoms: _711  and  _712
REMARK  289  A    between atoms: _715  and  _717
REMARK  290  A    between atoms: _717  and  _718
REMARK  291  A    between atoms: _717  and  _720
REMARK  292  A    between atoms: _720  and  _721
REMARK  293  A    between atoms: _726  and  _727
REMARK  294  A    between atoms: _729  and  _731
REMARK  295  A    between atoms: _731  and  _732
REMARK  296  A    between atoms: _731  and  _734
REMARK  297  A    between atoms: _734  and  _735
REMARK  298  A    between atoms: _738  and  _740
REMARK  299  A    between atoms: _740  and  _741
REMARK  300  A    between atoms: _740  and  _743
REMARK  301  A    between atoms: _743  and  _744
REMARK  302  A    between atoms: _747  and  _749
REMARK  303  A    between atoms: _749  and  _750
REMARK  304  A    between atoms: _749  and  _752
REMARK  305  A    between atoms: _752  and  _753
REMARK  306  A    between atoms: _754  and  _756
REMARK  307  A    between atoms: _756  and  _757
REMARK  308  A    between atoms: _756  and  _759
REMARK  309  A    between atoms: _762  and  _764
REMARK  310  A    between atoms: _764  and  _765
REMARK  311  A    between atoms: _764  and  _767
REMARK  312  A    between atoms: _767  and  _768
REMARK  313  A    between atoms: _768  and  _769
REMARK  314  A    between atoms: _772  and  _774
REMARK  315  A    between atoms: _774  and  _775
REMARK  316  A    between atoms: _774  and  _777
REMARK  317  A    between atoms: _777  and  _778
REMARK  318  A    between atoms: _788  and  _790
REMARK  319  A    between atoms: _790  and  _791
REMARK  320  A    between atoms: _790  and  _793
REMARK  321  A    between atoms: _793  and  _794
REMARK  322  A    between atoms: _797  and  _799
REMARK  323  A    between atoms: _799  and  _800
REMARK  324  A    between atoms: _799  and  _802
REMARK  325  A    between atoms: _802  and  _803
REMARK  326  A    between atoms: _808  and  _809
REMARK                            x       y       z     vdW  Elec       q    Type
REMARK                         _______ _______ _______ _____ _____    ______ ____
ROOT
ATOM      1  O   HOH     1      -2.084   0.580  -2.809  0.00  0.00    +0.000 OA
ENDROOT
TORSDOF 0
REMARK  Name = ../refined-set-2016/3p9m/3p9m_pocket.pdb
REMARK  326 active torsions:
REMARK  status: ('A' for Active; 'I' for Inactive)
REMARK    1  A    between atoms: _1  and  _3
REMARK    2  A    between atoms: _3  and  _4
REMARK    3  A    between atoms: _3  and  _6
REMARK    4  A    between atoms: _6  and  _7
REMARK    5  A    between atoms: _10  and  _12
REMARK    6  A    between atoms: _12  and  _13
REMARK    7  A    between atoms: _12  and  _15
REMARK    8  A    between atoms: _15  and  _16
REMARK    9  A    between atoms: _16  and  _17
REMARK   10  A    between atoms: _17  and  _18
REMARK   11  A    between atoms: _27  and  _29
REMARK   12  A    between atoms: _29  and  _30
REMARK   13  A    between atoms: _29  and  _32
REMARK   14  A    between atoms: _32  and  _33
REMARK   15  A    between atoms: _38  and  _39
REMARK   16  A    between atoms: _41  and  _43
REMARK   17  A    between atoms: _43  and  _44
REMARK   18  A    between atoms: _43  and  _46
REMARK   19  A    between atoms: _46  and  _47
REMARK   20  A    between atoms: _53  and  _55
REMARK   21  A    between atoms: _55  and  _56
REMARK   22  A    between atoms: _55  and  _58
REMARK   23  A    between atoms: _61  and  _63
REMARK   24  A    between atoms: _63  and  _64
REMARK   25  A    between atoms: _63  and  _66
REMARK   26  A    between atoms: _66  and  _67
REMARK   27  A    between atoms: _70  and  _72
REMARK   28  A    between atoms: _72  and  _73
REMARK   29  A    between atoms: _72  and  _75
REMARK   30  A    between atoms: _75  and  _76
REMARK   31  A    between atoms: _81  and  _82
REMARK   32  A    between atoms: _84  and  _86
REMARK   33  A    between atoms: _86  and  _87
REMARK   34  A    between atoms: _86  and  _89
REMARK   35  A    between atoms: _89  and  _90
REMARK   36  A    between atoms: _90  and  _91
REMARK   37  A    between atoms: _93  and  _95
REMARK   38  A    between atoms: _95  and  _96
REMARK   39  A    between atoms: _95  and  _98
REMARK   40  A    between atoms: _98  and  _99
REMARK   41  A    between atoms: _99  and  _100
REMARK   42  A    between atoms: _103  and  _105
REMARK   43  A    between atoms: _105  and  _106
REMARK   44  A    between atoms: _105  and  _108
REMARK   45  A    between atoms: _111  and  _113
REMARK   46  A    between atoms: _113  and  _114
REMARK   47  A    between atoms: _116  and  _118
REMARK   48  A    between atoms: _118  and  _119
REMARK   49  A    between atoms: _118  and  _121
REMARK   50  A    between atoms: _121  and  _122
REMARK   51  A    between atoms: _128  and  _130
REMARK   52  A    between atoms: _130  and  _131
REMARK   53  A    between atoms: _130  and  _133
REMARK   54  A    between atoms: _136  and  _138
REMARK   55  A    between atoms: _138  and  _139
REMARK   56  A    between atoms: _138  and  _141
REMARK   57  A    between atoms: _141  and  _142
REMARK   58  A    between atoms: _148  and  _150
REMARK   59  A    between atoms: _150  and  _151
REMARK   60  A    between atoms: _150  and  _153
REMARK   61  A    between atoms: _153  and  _154
REMARK   62  A    between atoms: _159  and  _160
REMARK   63  A    between atoms: _162  and  _164
REMARK   64  A    between atoms: _164  and  _165
REMARK   65  A    between atoms: _164  and  _167
REMARK   66  A    between atoms: _167  and  _168
REMARK   67  A    between atoms: _168  and  _169
REMARK   68  A    between atoms: _171  and  _173
REMARK   69  A    between atoms: _173  and  _174
REMARK   70  A    between atoms: _173  and  _176
REMARK   71  A    between atoms: _176  and  _177
REMARK   72  A    between atoms: _182  and  _183
REMARK   73  A    between atoms: _185  and  _187
REMARK   74  A    between atoms: _187  and  _188
REMARK   75  A    between atoms: _187  and  _190
REMARK   76  A    between atoms: _190  and  _191
REMARK   77  A    between atoms: _191  and  _192
REMARK   78  A    between atoms: _192  and  _193
REMARK   79  A    between atoms: _202  and  _204
REMARK   80  A    between atoms: _204  and  _205
REMARK   81  A    between atoms: _204  and  _207
REMARK   82  A    between atoms: _207  and  _208
REMARK   83  A    between atoms: _208  and  _209
REMARK   84  A    between atoms: _212  and  _214
REMARK   85  A    between atoms: _214  and  _215
REMARK   86  A    between atoms: _214  and  _217
REMARK   87  A    between atoms: _217  and  _218
REMARK   88  A    between atoms: _218  and  _219
REMARK   89  A    between atoms: _219  and  _220
REMARK   90  A    between atoms: _220  and  _221
REMARK   91  A    between atoms: _225  and  _227
REMARK   92  A    between atoms: _227  and  _228
REMARK   93  A    between atoms: _231  and  _233
REMARK   94  A    between atoms: _233  and  _234
REMARK   95  A    between atoms: _236  and  _238
REMARK   96  A    between atoms: _238  and  _239
REMARK   97  A    between atoms: _238  and  _241
REMARK   98  A    between atoms: _241  and  _242
REMARK   99  A    between atoms: _247  and  _249
REMARK  100  A    between atoms: _249  and  _250
REMARK  101  A    between atoms: _249  and  _252
REMARK  102  A    between atoms: _252  and  _253
REMARK  103  A    between atoms: _253  and  _254
REMARK  104  A    between atoms: _257  and  _259
REMARK  105  A    between atoms: _259  and  _260
REMARK  106  A    between atoms: _259  and  _262
REMARK  107  A    between atoms: _262  and  _263
REMARK  108  A    between atoms: _263  and  _264
REMARK  109  A    between atoms: _269  and  _271
REMARK  110  A    between atoms: _271  and  _272
REMARK  111  A    between atoms: _271  and  _274
REMARK  112  A    between atoms: _274  and  _275
REMARK  113  A    between atoms: _277  and  _279
REMARK  114  A    between atoms: _279  and  _280
REMARK  115  A    between atoms: _279  and  _282
REMARK  116  A    between atoms: _282  and  _283
REMARK  117  A    between atoms: _289  and  _291
REMARK  118  A    between atoms: _291  and  _292
REMARK  119  A    between atoms: _291  and  _294
REMARK  120  A    between atoms: _294  and  _295
REMARK  121  A    between atoms: _295  and  _296
REMARK  122  A    between atoms: _296  and  _297
REMARK  123  A    between atoms: _306  and  _308
REMARK  124  A    between atoms: _308  and  _309
REMARK  125  A    between atoms: _308  and  _311
REMARK  126  A    between atoms: _314  and  _316
REMARK  127  A    between atoms: _316  and  _317
REMARK  128  A    between atoms: _316  and  _319
REMARK  129  A    between atoms: _319  and  _320
REMARK  130  A    between atoms: _323  and  _325
REMARK  131  A    between atoms: _325  and  _326
REMARK  132  A    between atoms: _325  and  _328
REMARK  133  A    between atoms: _328  and  _329
REMARK  134  A    between atoms: _332  and  _334
REMARK  135  A    between atoms: _334  and  _335
REMARK  136  A    between atoms: _334  and  _337
REMARK  137  A    between atoms: _337  and  _338
REMARK  138  A    between atoms: _338  and  _339
REMARK  139  A    between atoms: _339  and  _340
REMARK  140  A    between atoms: _349  and  _351
REMARK  141  A    between atoms: _351  and  _352
REMARK  142  A    between atoms: _351  and  _354
REMARK  143  A    between atoms: _354  and  _355
REMARK  144  A    between atoms: _358  and  _360
REMARK  145  A    between atoms: _360  and  _361
REMARK  146  A    between atoms: _360  and  _363
REMARK  147  A    between atoms: _363  and  _364
REMARK  148  A    between atoms: _367  and  _369
REMARK  149  A    between atoms: _369  and  _370
REMARK  150  A    between atoms: _369  and  _372
REMARK  151  A    between atoms: _372  and  _373
REMARK  152  A    between atoms: _378  and  _379
REMARK  153  A    between atoms: _381  and  _383
REMARK  154  A    between atoms: _383  and  _384
REMARK  155  A    between atoms: _383  and  _386
REMARK  156  A    between atoms: _386  and  _387
REMARK  157  A    between atoms: _392  and  _393
REMARK  158  A    between atoms: _395  and  _397
REMARK  159  A    between atoms: _397  and  _398
REMARK  160  A    between atoms: _397  and  _400
REMARK  161  A    between atoms: _400  and  _401
REMARK  162  A    between atoms: _404  and  _406
REMARK  163  A    between atoms: _406  and  _407
REMARK  164  A    between atoms: _406  and  _409
REMARK  165  A    between atoms: _409  and  _410
REMARK  166  A    between atoms: _410  and  _411
REMARK  167  A    between atoms: _416  and  _418
REMARK  168  A    between atoms: _418  and  _419
REMARK  169  A    between atoms: _418  and  _421
REMARK  170  A    between atoms: _424  and  _426
REMARK  171  A    between atoms: _426  and  _427
REMARK  172  A    between atoms: _426  and  _429
REMARK  173  A    between atoms: _429  and  _430
REMARK  174  A    between atoms: _433  and  _435
REMARK  175  A    between atoms: _435  and  _436
REMARK  176  A    between atoms: _435  and  _438
REMARK  177  A    between atoms: _438  and  _439
REMARK  178  A    between atoms: _441  and  _443
REMARK  179  A    between atoms: _443  and  _444
REMARK  180  A    between atoms: _446  and  _448
REMARK  181  A    between atoms: _448  and  _449
REMARK  182  A    between atoms: _448  and  _451
REMARK  183  A    between atoms: _451  and  _452
REMARK  184  A    between atoms: _452  and  _753
REMARK  185  A    between atoms: _453  and  _455
REMARK  186  A    between atoms: _455  and  _456
REMARK  187  A    between atoms: _455  and  _458
REMARK  188  A    between atoms: _458  and  _459
REMARK  189  A    between atoms: _464  and  _465
REMARK  190  A    between atoms: _467  and  _469
REMARK  191  A    between atoms: _469  and  _470
REMARK  192  A    between atoms: _469  and  _472
REMARK  193  A    between atoms: _472  and  _473
REMARK  194  A    between atoms: _473  and  _474
REMARK  195  A    between atoms: _479  and  _481
REMARK  196  A    between atoms: _481  and  _482
REMARK  197  A    between atoms: _481  and  _484
REMARK  198  A    between atoms: _484  and  _485
REMARK  199  A    between atoms: _485  and  _486
REMARK  200  A    between atoms: _491  and  _493
REMARK  201  A    between atoms: _493  and  _494
REMARK  202  A    between atoms: _493  and  _496
REMARK  203  A    between atoms: _496  and  _497
REMARK  204  A    between atoms: _502  and  _503
REMARK  205  A    between atoms: _505  and  _507
REMARK  206  A    between atoms: _507  and  _508
REMARK  207  A    between atoms: _511  and  _513
REMARK  208  A    between atoms: _513  and  _514
REMARK  209  A    between atoms: _513  and  _516
REMARK  210  A    between atoms: _516  and  _517
REMARK  211  A    between atoms: _522  and  _523
REMARK  212  A    between atoms: _525  and  _527
REMARK  213  A    between atoms: _527  and  _528
REMARK  214  A    between atoms: _527  and  _530
REMARK  215  A    between atoms: _530  and  _531
REMARK  216  A    between atoms: _536  and  _537
REMARK  217  A    between atoms: _539  and  _541
REMARK  218  A    between atoms: _541  and  _542
REMARK  219  A    between atoms: _541  and  _544
REMARK  220  A    between atoms: _544  and  _545
REMARK  221  A    between atoms: _548  and  _550
REMARK  222  A    between atoms: _550  and  _551
REMARK  223  A    between atoms: _554  and  _556
REMARK  224  A    between atoms: _556  and  _557
REMARK  225  A    between atoms: _560  and  _562
REMARK  226  A    between atoms: _562  and  _563
REMARK  227  A    between atoms: _562  and  _565
REMARK  228  A    between atoms: _565  and  _566
REMARK  229  A    between atoms: _569  and  _571
REMARK  230  A    between atoms: _571  and  _572
REMARK  231  A    between atoms: _571  and  _574
REMARK  232  A    between atoms: _574  and  _575
REMARK  233  A    between atoms: _578  and  _580
REMARK  234  A    between atoms: _580  and  _581
REMARK  235  A    between atoms: _580  and  _583
REMARK  236  A    between atoms: _583  and  _584
REMARK  237  A    between atoms: _587  and  _589
REMARK  238  A    between atoms: _589  and  _590
REMARK  239  A    between atoms: _589  and  _592
REMARK  240  A    between atoms: _592  and  _593
REMARK  241  A    between atoms: _593  and  _594
REMARK  242  A    between atoms: _594  and  _595
REMARK  243  A    between atoms: _595  and  _596
REMARK  244  A    between atoms: _600  and  _602
REMARK  245  A    between atoms: _602  and  _603
REMARK  246  A    between atoms: _602  and  _605
REMARK  247  A    between atoms: _605  and  _606
REMARK  248  A    between atoms: _611  and  _613
REMARK  249  A    between atoms: _613  and  _614
REMARK  250  A    between atoms: _613  and  _616
REMARK  251  A    between atoms: _616  and  _617
REMARK  252  A    between atoms: _617  and  _618
REMARK  253  A    between atoms: _618  and  _619
REMARK  254  A    between atoms: _619  and  _620
REMARK  255  A    between atoms: _624  and  _626
REMARK  256  A    between atoms: _626  and  _627
REMARK  257  A    between atoms: _626  and  _629
REMARK  258  A    between atoms: _629  and  _630
REMARK  259  A    between atoms: _640  and  _642
REMARK  260  A    between atoms: _642  and  _643
REMARK  261  A    between atoms: _646  and  _648
REMARK  262  A    between atoms: _648  and  _649
REMARK  263  A    between atoms: _648  and  _651
REMARK  264  A    between atoms: _651  and  _652
REMARK  265  A    between atoms: _652  and  _653
REMARK  266  A    between atoms: _656  and  _658
REMARK  267  A    between atoms: _658  and  _659
REMARK  268  A    between atoms: _658  and  _661
REMARK  269  A    between atoms: _661  and  _662
REMARK  270  A    between atoms: _662  and  _663
REMARK  271  A    between atoms: _666  and  _668
REMARK  272  A    between atoms: _668  and  _669
REMARK  273  A    between atoms: _668  and  _671
REMARK  274  A    between atoms: _671  and  _672
REMARK  275  A    between atoms: _672  and  _673
REMARK  276  A    between atoms: _673  and  _674
REMARK  277  A    between atoms: _683  and  _685
REMARK  278  A    between atoms: _685  and  _686
REMARK  279  A    between atoms: _685  and  _688
REMARK  280  A    between atoms: _688  and  _689
REMARK  281  A    between atoms: _692  and  _694
REMARK  282  A    between atoms: _694  and  _695
REMARK  283  A    between atoms: _694  and  _697
REMARK  284  A    between atoms: _697  and  _698
REMARK  285  A    between atoms: _698  and  _699
REMARK  286  A    between atoms: _699  and  _700
REMARK  287  A    between atoms: _709  and  _711
REMARK  288  A    between atoms: _711  and  _712
REMARK  289  A    between atoms: _715  and  _717
REMARK  290  A    between atoms: _717  and  _718
REMARK  291  A    between atoms: _717  and  _720
REMARK  292  A    between atoms: _720  and  _721
REMARK  293  A    between atoms: _726  and  _727
REMARK  294  A    between atoms: _729  and  _731
REMARK  295  A    between atoms: _731  and  _732
REMARK  296  A    between atoms: _731  and  _734
REMARK  297  A    between atoms: _734  and  _735
REMARK  298  A    between atoms: _738  and  _740
REMARK  299  A    between atoms: _740  and  _741
REMARK  300  A    between atoms: _740  and  _743
REMARK  301  A    between atoms: _743  and  _744
REMARK  302  A    between atoms: _747  and  _749
REMARK  303  A    between atoms: _749  and  _750
REMARK  304  A    between atoms: _749  and  _752
REMARK  305  A    between atoms: _752  and  _753
REMARK  306  A    between atoms: _754  and  _756
REMARK  307  A    between atoms: _756  and  _757
REMARK  308  A    between atoms: _756  and  _759
REMARK  309  A    between atoms: _762  and  _764
REMARK  310  A    between atoms: _764  and  _765
REMARK  311  A    between atoms: _764  and  _767
REMARK  312  A    between atoms: _767  and  _768
REMARK  313  A    between atoms: _768  and  _769
REMARK  314  A    between atoms: _772  and  _774
REMARK  315  A    between atoms: _774  and  _775
REMARK  316  A    between atoms: _774  and  _777
REMARK  317  A    between atoms: _777  and  _778
REMARK  318  A    between atoms: _788  and  _790
REMARK  319  A    between atoms: _790  and  _791
REMARK  320  A    between atoms: _790  and  _793
REMARK  321  A    between atoms: _793  and  _794
REMARK  322  A    between atoms: _797  and  _799
REMARK  323  A    between atoms: _799  and  _800
REMARK  324  A    between atoms: _799  and  _802
REMARK  325  A    between atoms: _802  and  _803
REMARK  326  A    between atoms: _808  and  _809
REMARK                            x       y       z     vdW  Elec       q    Type
REMARK                         _______ _______ _______ _____ _____    ______ ____
ROOT
ATOM      1  O   HOH     1      -6.693  16.792 -12.314  0.00  0.00    +0.000 OA
ENDROOT
TORSDOF 0
REMARK  Name = ../refined-set-2016/3p9m/3p9m_pocket.pdb
REMARK  326 active torsions:
REMARK  status: ('A' for Active; 'I' for Inactive)
REMARK    1  A    between atoms: _1  and  _3
REMARK    2  A    between atoms: _3  and  _4
REMARK    3  A    between atoms: _3  and  _6
REMARK    4  A    between atoms: _6  and  _7
REMARK    5  A    between atoms: _10  and  _12
REMARK    6  A    between atoms: _12  and  _13
REMARK    7  A    between atoms: _12  and  _15
REMARK    8  A    between atoms: _15  and  _16
REMARK    9  A    between atoms: _16  and  _17
REMARK   10  A    between atoms: _17  and  _18
REMARK   11  A    between atoms: _27  and  _29
REMARK   12  A    between atoms: _29  and  _30
REMARK   13  A    between atoms: _29  and  _32
REMARK   14  A    between atoms: _32  and  _33
REMARK   15  A    between atoms: _38  and  _39
REMARK   16  A    between atoms: _41  and  _43
REMARK   17  A    between atoms: _43  and  _44
REMARK   18  A    between atoms: _43  and  _46
REMARK   19  A    between atoms: _46  and  _47
REMARK   20  A    between atoms: _53  and  _55
REMARK   21  A    between atoms: _55  and  _56
REMARK   22  A    between atoms: _55  and  _58
REMARK   23  A    between atoms: _61  and  _63
REMARK   24  A    between atoms: _63  and  _64
REMARK   25  A    between atoms: _63  and  _66
REMARK   26  A    between atoms: _66  and  _67
REMARK   27  A    between atoms: _70  and  _72
REMARK   28  A    between atoms: _72  and  _73
REMARK   29  A    between atoms: _72  and  _75
REMARK   30  A    between atoms: _75  and  _76
REMARK   31  A    between atoms: _81  and  _82
REMARK   32  A    between atoms: _84  and  _86
REMARK   33  A    between atoms: _86  and  _87
REMARK   34  A    between atoms: _86  and  _89
REMARK   35  A    between atoms: _89  and  _90
REMARK   36  A    between atoms: _90  and  _91
REMARK   37  A    between atoms: _93  and  _95
REMARK   38  A    between atoms: _95  and  _96
REMARK   39  A    between atoms: _95  and  _98
REMARK   40  A    between atoms: _98  and  _99
REMARK   41  A    between atoms: _99  and  _100
REMARK   42  A    between atoms: _103  and  _105
REMARK   43  A    between atoms: _105  and  _106
REMARK   44  A    between atoms: _105  and  _108
REMARK   45  A    between atoms: _111  and  _113
REMARK   46  A    between atoms: _113  and  _114
REMARK   47  A    between atoms: _116  and  _118
REMARK   48  A    between atoms: _118  and  _119
REMARK   49  A    between atoms: _118  and  _121
REMARK   50  A    between atoms: _121  and  _122
REMARK   51  A    between atoms: _128  and  _130
REMARK   52  A    between atoms: _130  and  _131
REMARK   53  A    between atoms: _130  and  _133
REMARK   54  A    between atoms: _136  and  _138
REMARK   55  A    between atoms: _138  and  _139
REMARK   56  A    between atoms: _138  and  _141
REMARK   57  A    between atoms: _141  and  _142
REMARK   58  A    between atoms: _148  and  _150
REMARK   59  A    between atoms: _150  and  _151
REMARK   60  A    between atoms: _150  and  _153
REMARK   61  A    between atoms: _153  and  _154
REMARK   62  A    between atoms: _159  and  _160
REMARK   63  A    between atoms: _162  and  _164
REMARK   64  A    between atoms: _164  and  _165
REMARK   65  A    between atoms: _164  and  _167
REMARK   66  A    between atoms: _167  and  _168
REMARK   67  A    between atoms: _168  and  _169
REMARK   68  A    between atoms: _171  and  _173
REMARK   69  A    between atoms: _173  and  _174
REMARK   70  A    between atoms: _173  and  _176
REMARK   71  A    between atoms: _176  and  _177
REMARK   72  A    between atoms: _182  and  _183
REMARK   73  A    between atoms: _185  and  _187
REMARK   74  A    between atoms: _187  and  _188
REMARK   75  A    between atoms: _187  and  _190
REMARK   76  A    between atoms: _190  and  _191
REMARK   77  A    between atoms: _191  and  _192
REMARK   78  A    between atoms: _192  and  _193
REMARK   79  A    between atoms: _202  and  _204
REMARK   80  A    between atoms: _204  and  _205
REMARK   81  A    between atoms: _204  and  _207
REMARK   82  A    between atoms: _207  and  _208
REMARK   83  A    between atoms: _208  and  _209
REMARK   84  A    between atoms: _212  and  _214
REMARK   85  A    between atoms: _214  and  _215
REMARK   86  A    between atoms: _214  and  _217
REMARK   87  A    between atoms: _217  and  _218
REMARK   88  A    between atoms: _218  and  _219
REMARK   89  A    between atoms: _219  and  _220
REMARK   90  A    between atoms: _220  and  _221
REMARK   91  A    between atoms: _225  and  _227
REMARK   92  A    between atoms: _227  and  _228
REMARK   93  A    between atoms: _231  and  _233
REMARK   94  A    between atoms: _233  and  _234
REMARK   95  A    between atoms: _236  and  _238
REMARK   96  A    between atoms: _238  and  _239
REMARK   97  A    between atoms: _238  and  _241
REMARK   98  A    between atoms: _241  and  _242
REMARK   99  A    between atoms: _247  and  _249
REMARK  100  A    between atoms: _249  and  _250
REMARK  101  A    between atoms: _249  and  _252
REMARK  102  A    between atoms: _252  and  _253
REMARK  103  A    between atoms: _253  and  _254
REMARK  104  A    between atoms: _257  and  _259
REMARK  105  A    between atoms: _259  and  _260
REMARK  106  A    between atoms: _259  and  _262
REMARK  107  A    between atoms: _262  and  _263
REMARK  108  A    between atoms: _263  and  _264
REMARK  109  A    between atoms: _269  and  _271
REMARK  110  A    between atoms: _271  and  _272
REMARK  111  A    between atoms: _271  and  _274
REMARK  112  A    between atoms: _274  and  _275
REMARK  113  A    between atoms: _277  and  _279
REMARK  114  A    between atoms: _279  and  _280
REMARK  115  A    between atoms: _279  and  _282
REMARK  116  A    between atoms: _282  and  _283
REMARK  117  A    between atoms: _289  and  _291
REMARK  118  A    between atoms: _291  and  _292
REMARK  119  A    between atoms: _291  and  _294
REMARK  120  A    between atoms: _294  and  _295
REMARK  121  A    between atoms: _295  and  _296
REMARK  122  A    between atoms: _296  and  _297
REMARK  123  A    between atoms: _306  and  _308
REMARK  124  A    between atoms: _308  and  _309
REMARK  125  A    between atoms: _308  and  _311
REMARK  126  A    between atoms: _314  and  _316
REMARK  127  A    between atoms: _316  and  _317
REMARK  128  A    between atoms: _316  and  _319
REMARK  129  A    between atoms: _319  and  _320
REMARK  130  A    between atoms: _323  and  _325
REMARK  131  A    between atoms: _325  and  _326
REMARK  132  A    between atoms: _325  and  _328
REMARK  133  A    between atoms: _328  and  _329
REMARK  134  A    between atoms: _332  and  _334
REMARK  135  A    between atoms: _334  and  _335
REMARK  136  A    between atoms: _334  and  _337
REMARK  137  A    between atoms: _337  and  _338
REMARK  138  A    between atoms: _338  and  _339
REMARK  139  A    between atoms: _339  and  _340
REMARK  140  A    between atoms: _349  and  _351
REMARK  141  A    between atoms: _351  and  _352
REMARK  142  A    between atoms: _351  and  _354
REMARK  143  A    between atoms: _354  and  _355
REMARK  144  A    between atoms: _358  and  _360
REMARK  145  A    between atoms: _360  and  _361
REMARK  146  A    between atoms: _360  and  _363
REMARK  147  A    between atoms: _363  and  _364
REMARK  148  A    between atoms: _367  and  _369
REMARK  149  A    between atoms: _369  and  _370
REMARK  150  A    between atoms: _369  and  _372
REMARK  151  A    between atoms: _372  and  _373
REMARK  152  A    between atoms: _378  and  _379
REMARK  153  A    between atoms: _381  and  _383
REMARK  154  A    between atoms: _383  and  _384
REMARK  155  A    between atoms: _383  and  _386
REMARK  156  A    between atoms: _386  and  _387
REMARK  157  A    between atoms: _392  and  _393
REMARK  158  A    between atoms: _395  and  _397
REMARK  159  A    between atoms: _397  and  _398
REMARK  160  A    between atoms: _397  and  _400
REMARK  161  A    between atoms: _400  and  _401
REMARK  162  A    between atoms: _404  and  _406
REMARK  163  A    between atoms: _406  and  _407
REMARK  164  A    between atoms: _406  and  _409
REMARK  165  A    between atoms: _409  and  _410
REMARK  166  A    between atoms: _410  and  _411
REMARK  167  A    between atoms: _416  and  _418
REMARK  168  A    between atoms: _418  and  _419
REMARK  169  A    between atoms: _418  and  _421
REMARK  170  A    between atoms: _424  and  _426
REMARK  171  A    between atoms: _426  and  _427
REMARK  172  A    between atoms: _426  and  _429
REMARK  173  A    between atoms: _429  and  _430
REMARK  174  A    between atoms: _433  and  _435
REMARK  175  A    between atoms: _435  and  _436
REMARK  176  A    between atoms: _435  and  _438
REMARK  177  A    between atoms: _438  and  _439
REMARK  178  A    between atoms: _441  and  _443
REMARK  179  A    between atoms: _443  and  _444
REMARK  180  A    between atoms: _446  and  _448
REMARK  181  A    between atoms: _448  and  _449
REMARK  182  A    between atoms: _448  and  _451
REMARK  183  A    between atoms: _451  and  _452
REMARK  184  A    between atoms: _452  and  _753
REMARK  185  A    between atoms: _453  and  _455
REMARK  186  A    between atoms: _455  and  _456
REMARK  187  A    between atoms: _455  and  _458
REMARK  188  A    between atoms: _458  and  _459
REMARK  189  A    between atoms: _464  and  _465
REMARK  190  A    between atoms: _467  and  _469
REMARK  191  A    between atoms: _469  and  _470
REMARK  192  A    between atoms: _469  and  _472
REMARK  193  A    between atoms: _472  and  _473
REMARK  194  A    between atoms: _473  and  _474
REMARK  195  A    between atoms: _479  and  _481
REMARK  196  A    between atoms: _481  and  _482
REMARK  197  A    between atoms: _481  and  _484
REMARK  198  A    between atoms: _484  and  _485
REMARK  199  A    between atoms: _485  and  _486
REMARK  200  A    between atoms: _491  and  _493
REMARK  201  A    between atoms: _493  and  _494
REMARK  202  A    between atoms: _493  and  _496
REMARK  203  A    between atoms: _496  and  _497
REMARK  204  A    between atoms: _502  and  _503
REMARK  205  A    between atoms: _505  and  _507
REMARK  206  A    between atoms: _507  and  _508
REMARK  207  A    between atoms: _511  and  _513
REMARK  208  A    between atoms: _513  and  _514
REMARK  209  A    between atoms: _513  and  _516
REMARK  210  A    between atoms: _516  and  _517
REMARK  211  A    between atoms: _522  and  _523
REMARK  212  A    between atoms: _525  and  _527
REMARK  213  A    between atoms: _527  and  _528
REMARK  214  A    between atoms: _527  and  _530
REMARK  215  A    between atoms: _530  and  _531
REMARK  216  A    between atoms: _536  and  _537
REMARK  217  A    between atoms: _539  and  _541
REMARK  218  A    between atoms: _541  and  _542
REMARK  219  A    between atoms: _541  and  _544
REMARK  220  A    between atoms: _544  and  _545
REMARK  221  A    between atoms: _548  and  _550
REMARK  222  A    between atoms: _550  and  _551
REMARK  223  A    between atoms: _554  and  _556
REMARK  224  A    between atoms: _556  and  _557
REMARK  225  A    between atoms: _560  and  _562
REMARK  226  A    between atoms: _562  and  _563
REMARK  227  A    between atoms: _562  and  _565
REMARK  228  A    between atoms: _565  and  _566
REMARK  229  A    between atoms: _569  and  _571
REMARK  230  A    between atoms: _571  and  _572
REMARK  231  A    between atoms: _571  and  _574
REMARK  232  A    between atoms: _574  and  _575
REMARK  233  A    between atoms: _578  and  _580
REMARK  234  A    between atoms: _580  and  _581
REMARK  235  A    between atoms: _580  and  _583
REMARK  236  A    between atoms: _583  and  _584
REMARK  237  A    between atoms: _587  and  _589
REMARK  238  A    between atoms: _589  and  _590
REMARK  239  A    between atoms: _589  and  _592
REMARK  240  A    between atoms: _592  and  _593
REMARK  241  A    between atoms: _593  and  _594
REMARK  242  A    between atoms: _594  and  _595
REMARK  243  A    between atoms: _595  and  _596
REMARK  244  A    between atoms: _600  and  _602
REMARK  245  A    between atoms: _602  and  _603
REMARK  246  A    between atoms: _602  and  _605
REMARK  247  A    between atoms: _605  and  _606
REMARK  248  A    between atoms: _611  and  _613
REMARK  249  A    between atoms: _613  and  _614
REMARK  250  A    between atoms: _613  and  _616
REMARK  251  A    between atoms: _616  and  _617
REMARK  252  A    between atoms: _617  and  _618
REMARK  253  A    between atoms: _618  and  _619
REMARK  254  A    between atoms: _619  and  _620
REMARK  255  A    between atoms: _624  and  _626
REMARK  256  A    between atoms: _626  and  _627
REMARK  257  A    between atoms: _626  and  _629
REMARK  258  A    between atoms: _629  and  _630
REMARK  259  A    between atoms: _640  and  _642
REMARK  260  A    between atoms: _642  and  _643
REMARK  261  A    between atoms: _646  and  _648
REMARK  262  A    between atoms: _648  and  _649
REMARK  263  A    between atoms: _648  and  _651
REMARK  264  A    between atoms: _651  and  _652
REMARK  265  A    between atoms: _652  and  _653
REMARK  266  A    between atoms: _656  and  _658
REMARK  267  A    between atoms: _658  and  _659
REMARK  268  A    between atoms: _658  and  _661
REMARK  269  A    between atoms: _661  and  _662
REMARK  270  A    between atoms: _662  and  _663
REMARK  271  A    between atoms: _666  and  _668
REMARK  272  A    between atoms: _668  and  _669
REMARK  273  A    between atoms: _668  and  _671
REMARK  274  A    between atoms: _671  and  _672
REMARK  275  A    between atoms: _672  and  _673
REMARK  276  A    between atoms: _673  and  _674
REMARK  277  A    between atoms: _683  and  _685
REMARK  278  A    between atoms: _685  and  _686
REMARK  279  A    between atoms: _685  and  _688
REMARK  280  A    between atoms: _688  and  _689
REMARK  281  A    between atoms: _692  and  _694
REMARK  282  A    between atoms: _694  and  _695
REMARK  283  A    between atoms: _694  and  _697
REMARK  284  A    between atoms: _697  and  _698
REMARK  285  A    between atoms: _698  and  _699
REMARK  286  A    between atoms: _699  and  _700
REMARK  287  A    between atoms: _709  and  _711
REMARK  288  A    between atoms: _711  and  _712
REMARK  289  A    between atoms: _715  and  _717
REMARK  290  A    between atoms: _717  and  _718
REMARK  291  A    between atoms: _717  and  _720
REMARK  292  A    between atoms: _720  and  _721
REMARK  293  A    between atoms: _726  and  _727
REMARK  294  A    between atoms: _729  and  _731
REMARK  295  A    between atoms: _731  and  _732
REMARK  296  A    between atoms: _731  and  _734
REMARK  297  A    between atoms: _734  and  _735
REMARK  298  A    between atoms: _738  and  _740
REMARK  299  A    between atoms: _740  and  _741
REMARK  300  A    between atoms: _740  and  _743
REMARK  301  A    between atoms: _743  and  _744
REMARK  302  A    between atoms: _747  and  _749
REMARK  303  A    between atoms: _749  and  _750
REMARK  304  A    between atoms: _749  and  _752
REMARK  305  A    between atoms: _752  and  _753
REMARK  306  A    between atoms: _754  and  _756
REMARK  307  A    between atoms: _756  and  _757
REMARK  308  A    between atoms: _756  and  _759
REMARK  309  A    between atoms: _762  and  _764
REMARK  310  A    between atoms: _764  and  _765
REMARK  311  A    between atoms: _764  and  _767
REMARK  312  A    between atoms: _767  and  _768
REMARK  313  A    between atoms: _768  and  _769
REMARK  314  A    between atoms: _772  and  _774
REMARK  315  A    between atoms: _774  and  _775
REMARK  316  A    between atoms: _774  and  _777
REMARK  317  A    between atoms: _777  and  _778
REMARK  318  A    between atoms: _788  and  _790
REMARK  319  A    between atoms: _790  and  _791
REMARK  320  A    between atoms: _790  and  _793
REMARK  321  A    between atoms: _793  and  _794
REMARK  322  A    between atoms: _797  and  _799
REMARK  323  A    between atoms: _799  and  _800
REMARK  324  A    between atoms: _799  and  _802
REMARK  325  A    between atoms: _802  and  _803
REMARK  326  A    between atoms: _808  and  _809
REMARK                            x       y       z     vdW  Elec       q    Type
REMARK                         _______ _______ _______ _____ _____    ______ ____
ROOT
ATOM      1  O   HOH     1      -4.035   4.255  -2.420  0.00  0.00    +0.000 OA
ENDROOT
TORSDOF 0
REMARK  Name = ../refined-set-2016/3p9m/3p9m_pocket.pdb
REMARK  326 active torsions:
REMARK  status: ('A' for Active; 'I' for Inactive)
REMARK    1  A    between atoms: _1  and  _3
REMARK    2  A    between atoms: _3  and  _4
REMARK    3  A    between atoms: _3  and  _6
REMARK    4  A    between atoms: _6  and  _7
REMARK    5  A    between atoms: _10  and  _12
REMARK    6  A    between atoms: _12  and  _13
REMARK    7  A    between atoms: _12  and  _15
REMARK    8  A    between atoms: _15  and  _16
REMARK    9  A    between atoms: _16  and  _17
REMARK   10  A    between atoms: _17  and  _18
REMARK   11  A    between atoms: _27  and  _29
REMARK   12  A    between atoms: _29  and  _30
REMARK   13  A    between atoms: _29  and  _32
REMARK   14  A    between atoms: _32  and  _33
REMARK   15  A    between atoms: _38  and  _39
REMARK   16  A    between atoms: _41  and  _43
REMARK   17  A    between atoms: _43  and  _44
REMARK   18  A    between atoms: _43  and  _46
REMARK   19  A    between atoms: _46  and  _47
REMARK   20  A    between atoms: _53  and  _55
REMARK   21  A    between atoms: _55  and  _56
REMARK   22  A    between atoms: _55  and  _58
REMARK   23  A    between atoms: _61  and  _63
REMARK   24  A    between atoms: _63  and  _64
REMARK   25  A    between atoms: _63  and  _66
REMARK   26  A    between atoms: _66  and  _67
REMARK   27  A    between atoms: _70  and  _72
REMARK   28  A    between atoms: _72  and  _73
REMARK   29  A    between atoms: _72  and  _75
REMARK   30  A    between atoms: _75  and  _76
REMARK   31  A    between atoms: _81  and  _82
REMARK   32  A    between atoms: _84  and  _86
REMARK   33  A    between atoms: _86  and  _87
REMARK   34  A    between atoms: _86  and  _89
REMARK   35  A    between atoms: _89  and  _90
REMARK   36  A    between atoms: _90  and  _91
REMARK   37  A    between atoms: _93  and  _95
REMARK   38  A    between atoms: _95  and  _96
REMARK   39  A    between atoms: _95  and  _98
REMARK   40  A    between atoms: _98  and  _99
REMARK   41  A    between atoms: _99  and  _100
REMARK   42  A    between atoms: _103  and  _105
REMARK   43  A    between atoms: _105  and  _106
REMARK   44  A    between atoms: _105  and  _108
REMARK   45  A    between atoms: _111  and  _113
REMARK   46  A    between atoms: _113  and  _114
REMARK   47  A    between atoms: _116  and  _118
REMARK   48  A    between atoms: _118  and  _119
REMARK   49  A    between atoms: _118  and  _121
REMARK   50  A    between atoms: _121  and  _122
REMARK   51  A    between atoms: _128  and  _130
REMARK   52  A    between atoms: _130  and  _131
REMARK   53  A    between atoms: _130  and  _133
REMARK   54  A    between atoms: _136  and  _138
REMARK   55  A    between atoms: _138  and  _139
REMARK   56  A    between atoms: _138  and  _141
REMARK   57  A    between atoms: _141  and  _142
REMARK   58  A    between atoms: _148  and  _150
REMARK   59  A    between atoms: _150  and  _151
REMARK   60  A    between atoms: _150  and  _153
REMARK   61  A    between atoms: _153  and  _154
REMARK   62  A    between atoms: _159  and  _160
REMARK   63  A    between atoms: _162  and  _164
REMARK   64  A    between atoms: _164  and  _165
REMARK   65  A    between atoms: _164  and  _167
REMARK   66  A    between atoms: _167  and  _168
REMARK   67  A    between atoms: _168  and  _169
REMARK   68  A    between atoms: _171  and  _173
REMARK   69  A    between atoms: _173  and  _174
REMARK   70  A    between atoms: _173  and  _176
REMARK   71  A    between atoms: _176  and  _177
REMARK   72  A    between atoms: _182  and  _183
REMARK   73  A    between atoms: _185  and  _187
REMARK   74  A    between atoms: _187  and  _188
REMARK   75  A    between atoms: _187  and  _190
REMARK   76  A    between atoms: _190  and  _191
REMARK   77  A    between atoms: _191  and  _192
REMARK   78  A    between atoms: _192  and  _193
REMARK   79  A    between atoms: _202  and  _204
REMARK   80  A    between atoms: _204  and  _205
REMARK   81  A    between atoms: _204  and  _207
REMARK   82  A    between atoms: _207  and  _208
REMARK   83  A    between atoms: _208  and  _209
REMARK   84  A    between atoms: _212  and  _214
REMARK   85  A    between atoms: _214  and  _215
REMARK   86  A    between atoms: _214  and  _217
REMARK   87  A    between atoms: _217  and  _218
REMARK   88  A    between atoms: _218  and  _219
REMARK   89  A    between atoms: _219  and  _220
REMARK   90  A    between atoms: _220  and  _221
REMARK   91  A    between atoms: _225  and  _227
REMARK   92  A    between atoms: _227  and  _228
REMARK   93  A    between atoms: _231  and  _233
REMARK   94  A    between atoms: _233  and  _234
REMARK   95  A    between atoms: _236  and  _238
REMARK   96  A    between atoms: _238  and  _239
REMARK   97  A    between atoms: _238  and  _241
REMARK   98  A    between atoms: _241  and  _242
REMARK   99  A    between atoms: _247  and  _249
REMARK  100  A    between atoms: _249  and  _250
REMARK  101  A    between atoms: _249  and  _252
REMARK  102  A    between atoms: _252  and  _253
REMARK  103  A    between atoms: _253  and  _254
REMARK  104  A    between atoms: _257  and  _259
REMARK  105  A    between atoms: _259  and  _260
REMARK  106  A    between atoms: _259  and  _262
REMARK  107  A    between atoms: _262  and  _263
REMARK  108  A    between atoms: _263  and  _264
REMARK  109  A    between atoms: _269  and  _271
REMARK  110  A    between atoms: _271  and  _272
REMARK  111  A    between atoms: _271  and  _274
REMARK  112  A    between atoms: _274  and  _275
REMARK  113  A    between atoms: _277  and  _279
REMARK  114  A    between atoms: _279  and  _280
REMARK  115  A    between atoms: _279  and  _282
REMARK  116  A    between atoms: _282  and  _283
REMARK  117  A    between atoms: _289  and  _291
REMARK  118  A    between atoms: _291  and  _292
REMARK  119  A    between atoms: _291  and  _294
REMARK  120  A    between atoms: _294  and  _295
REMARK  121  A    between atoms: _295  and  _296
REMARK  122  A    between atoms: _296  and  _297
REMARK  123  A    between atoms: _306  and  _308
REMARK  124  A    between atoms: _308  and  _309
REMARK  125  A    between atoms: _308  and  _311
REMARK  126  A    between atoms: _314  and  _316
REMARK  127  A    between atoms: _316  and  _317
REMARK  128  A    between atoms: _316  and  _319
REMARK  129  A    between atoms: _319  and  _320
REMARK  130  A    between atoms: _323  and  _325
REMARK  131  A    between atoms: _325  and  _326
REMARK  132  A    between atoms: _325  and  _328
REMARK  133  A    between atoms: _328  and  _329
REMARK  134  A    between atoms: _332  and  _334
REMARK  135  A    between atoms: _334  and  _335
REMARK  136  A    between atoms: _334  and  _337
REMARK  137  A    between atoms: _337  and  _338
REMARK  138  A    between atoms: _338  and  _339
REMARK  139  A    between atoms: _339  and  _340
REMARK  140  A    between atoms: _349  and  _351
REMARK  141  A    between atoms: _351  and  _352
REMARK  142  A    between atoms: _351  and  _354
REMARK  143  A    between atoms: _354  and  _355
REMARK  144  A    between atoms: _358  and  _360
REMARK  145  A    between atoms: _360  and  _361
REMARK  146  A    between atoms: _360  and  _363
REMARK  147  A    between atoms: _363  and  _364
REMARK  148  A    between atoms: _367  and  _369
REMARK  149  A    between atoms: _369  and  _370
REMARK  150  A    between atoms: _369  and  _372
REMARK  151  A    between atoms: _372  and  _373
REMARK  152  A    between atoms: _378  and  _379
REMARK  153  A    between atoms: _381  and  _383
REMARK  154  A    between atoms: _383  and  _384
REMARK  155  A    between atoms: _383  and  _386
REMARK  156  A    between atoms: _386  and  _387
REMARK  157  A    between atoms: _392  and  _393
REMARK  158  A    between atoms: _395  and  _397
REMARK  159  A    between atoms: _397  and  _398
REMARK  160  A    between atoms: _397  and  _400
REMARK  161  A    between atoms: _400  and  _401
REMARK  162  A    between atoms: _404  and  _406
REMARK  163  A    between atoms: _406  and  _407
REMARK  164  A    between atoms: _406  and  _409
REMARK  165  A    between atoms: _409  and  _410
REMARK  166  A    between atoms: _410  and  _411
REMARK  167  A    between atoms: _416  and  _418
REMARK  168  A    between atoms: _418  and  _419
REMARK  169  A    between atoms: _418  and  _421
REMARK  170  A    between atoms: _424  and  _426
REMARK  171  A    between atoms: _426  and  _427
REMARK  172  A    between atoms: _426  and  _429
REMARK  173  A    between atoms: _429  and  _430
REMARK  174  A    between atoms: _433  and  _435
REMARK  175  A    between atoms: _435  and  _436
REMARK  176  A    between atoms: _435  and  _438
REMARK  177  A    between atoms: _438  and  _439
REMARK  178  A    between atoms: _441  and  _443
REMARK  179  A    between atoms: _443  and  _444
REMARK  180  A    between atoms: _446  and  _448
REMARK  181  A    between atoms: _448  and  _449
REMARK  182  A    between atoms: _448  and  _451
REMARK  183  A    between atoms: _451  and  _452
REMARK  184  A    between atoms: _452  and  _753
REMARK  185  A    between atoms: _453  and  _455
REMARK  186  A    between atoms: _455  and  _456
REMARK  187  A    between atoms: _455  and  _458
REMARK  188  A    between atoms: _458  and  _459
REMARK  189  A    between atoms: _464  and  _465
REMARK  190  A    between atoms: _467  and  _469
REMARK  191  A    between atoms: _469  and  _470
REMARK  192  A    between atoms: _469  and  _472
REMARK  193  A    between atoms: _472  and  _473
REMARK  194  A    between atoms: _473  and  _474
REMARK  195  A    between atoms: _479  and  _481
REMARK  196  A    between atoms: _481  and  _482
REMARK  197  A    between atoms: _481  and  _484
REMARK  198  A    between atoms: _484  and  _485
REMARK  199  A    between atoms: _485  and  _486
REMARK  200  A    between atoms: _491  and  _493
REMARK  201  A    between atoms: _493  and  _494
REMARK  202  A    between atoms: _493  and  _496
REMARK  203  A    between atoms: _496  and  _497
REMARK  204  A    between atoms: _502  and  _503
REMARK  205  A    between atoms: _505  and  _507
REMARK  206  A    between atoms: _507  and  _508
REMARK  207  A    between atoms: _511  and  _513
REMARK  208  A    between atoms: _513  and  _514
REMARK  209  A    between atoms: _513  and  _516
REMARK  210  A    between atoms: _516  and  _517
REMARK  211  A    between atoms: _522  and  _523
REMARK  212  A    between atoms: _525  and  _527
REMARK  213  A    between atoms: _527  and  _528
REMARK  214  A    between atoms: _527  and  _530
REMARK  215  A    between atoms: _530  and  _531
REMARK  216  A    between atoms: _536  and  _537
REMARK  217  A    between atoms: _539  and  _541
REMARK  218  A    between atoms: _541  and  _542
REMARK  219  A    between atoms: _541  and  _544
REMARK  220  A    between atoms: _544  and  _545
REMARK  221  A    between atoms: _548  and  _550
REMARK  222  A    between atoms: _550  and  _551
REMARK  223  A    between atoms: _554  and  _556
REMARK  224  A    between atoms: _556  and  _557
REMARK  225  A    between atoms: _560  and  _562
REMARK  226  A    between atoms: _562  and  _563
REMARK  227  A    between atoms: _562  and  _565
REMARK  228  A    between atoms: _565  and  _566
REMARK  229  A    between atoms: _569  and  _571
REMARK  230  A    between atoms: _571  and  _572
REMARK  231  A    between atoms: _571  and  _574
REMARK  232  A    between atoms: _574  and  _575
REMARK  233  A    between atoms: _578  and  _580
REMARK  234  A    between atoms: _580  and  _581
REMARK  235  A    between atoms: _580  and  _583
REMARK  236  A    between atoms: _583  and  _584
REMARK  237  A    between atoms: _587  and  _589
REMARK  238  A    between atoms: _589  and  _590
REMARK  239  A    between atoms: _589  and  _592
REMARK  240  A    between atoms: _592  and  _593
REMARK  241  A    between atoms: _593  and  _594
REMARK  242  A    between atoms: _594  and  _595
REMARK  243  A    between atoms: _595  and  _596
REMARK  244  A    between atoms: _600  and  _602
REMARK  245  A    between atoms: _602  and  _603
REMARK  246  A    between atoms: _602  and  _605
REMARK  247  A    between atoms: _605  and  _606
REMARK  248  A    between atoms: _611  and  _613
REMARK  249  A    between atoms: _613  and  _614
REMARK  250  A    between atoms: _613  and  _616
REMARK  251  A    between atoms: _616  and  _617
REMARK  252  A    between atoms: _617  and  _618
REMARK  253  A    between atoms: _618  and  _619
REMARK  254  A    between atoms: _619  and  _620
REMARK  255  A    between atoms: _624  and  _626
REMARK  256  A    between atoms: _626  and  _627
REMARK  257  A    between atoms: _626  and  _629
REMARK  258  A    between atoms: _629  and  _630
REMARK  259  A    between atoms: _640  and  _642
REMARK  260  A    between atoms: _642  and  _643
REMARK  261  A    between atoms: _646  and  _648
REMARK  262  A    between atoms: _648  and  _649
REMARK  263  A    between atoms: _648  and  _651
REMARK  264  A    between atoms: _651  and  _652
REMARK  265  A    between atoms: _652  and  _653
REMARK  266  A    between atoms: _656  and  _658
REMARK  267  A    between atoms: _658  and  _659
REMARK  268  A    between atoms: _658  and  _661
REMARK  269  A    between atoms: _661  and  _662
REMARK  270  A    between atoms: _662  and  _663
REMARK  271  A    between atoms: _666  and  _668
REMARK  272  A    between atoms: _668  and  _669
REMARK  273  A    between atoms: _668  and  _671
REMARK  274  A    between atoms: _671  and  _672
REMARK  275  A    between atoms: _672  and  _673
REMARK  276  A    between atoms: _673  and  _674
REMARK  277  A    between atoms: _683  and  _685
REMARK  278  A    between atoms: _685  and  _686
REMARK  279  A    between atoms: _685  and  _688
REMARK  280  A    between atoms: _688  and  _689
REMARK  281  A    between atoms: _692  and  _694
REMARK  282  A    between atoms: _694  and  _695
REMARK  283  A    between atoms: _694  and  _697
REMARK  284  A    between atoms: _697  and  _698
REMARK  285  A    between atoms: _698  and  _699
REMARK  286  A    between atoms: _699  and  _700
REMARK  287  A    between atoms: _709  and  _711
REMARK  288  A    between atoms: _711  and  _712
REMARK  289  A    between atoms: _715  and  _717
REMARK  290  A    between atoms: _717  and  _718
REMARK  291  A    between atoms: _717  and  _720
REMARK  292  A    between atoms: _720  and  _721
REMARK  293  A    between atoms: _726  and  _727
REMARK  294  A    between atoms: _729  and  _731
REMARK  295  A    between atoms: _731  and  _732
REMARK  296  A    between atoms: _731  and  _734
REMARK  297  A    between atoms: _734  and  _735
REMARK  298  A    between atoms: _738  and  _740
REMARK  299  A    between atoms: _740  and  _741
REMARK  300  A    between atoms: _740  and  _743
REMARK  301  A    between atoms: _743  and  _744
REMARK  302  A    between atoms: _747  and  _749
REMARK  303  A    between atoms: _749  and  _750
REMARK  304  A    between atoms: _749  and  _752
REMARK  305  A    between atoms: _752  and  _753
REMARK  306  A    between atoms: _754  and  _756
REMARK  307  A    between atoms: _756  and  _757
REMARK  308  A    between atoms: _756  and  _759
REMARK  309  A    between atoms: _762  and  _764
REMARK  310  A    between atoms: _764  and  _765
REMARK  311  A    between atoms: _764  and  _767
REMARK  312  A    between atoms: _767  and  _768
REMARK  313  A    between atoms: _768  and  _769
REMARK  314  A    between atoms: _772  and  _774
REMARK  315  A    between atoms: _774  and  _775
REMARK  316  A    between atoms: _774  and  _777
REMARK  317  A    between atoms: _777  and  _778
REMARK  318  A    between atoms: _788  and  _790
REMARK  319  A    between atoms: _790  and  _791
REMARK  320  A    between atoms: _790  and  _793
REMARK  321  A    between atoms: _793  and  _794
REMARK  322  A    between atoms: _797  and  _799
REMARK  323  A    between atoms: _799  and  _800
REMARK  324  A    between atoms: _799  and  _802
REMARK  325  A    between atoms: _802  and  _803
REMARK  326  A    between atoms: _808  and  _809
REMARK                            x       y       z     vdW  Elec       q    Type
REMARK                         _______ _______ _______ _____ _____    ______ ____
ROOT
ATOM      1  O   HOH     1      -9.384  17.150 -11.615  0.00  0.00    +0.000 OA
ENDROOT
TORSDOF 0
REMARK  Name = ../refined-set-2016/3p9m/3p9m_pocket.pdb
REMARK  326 active torsions:
REMARK  status: ('A' for Active; 'I' for Inactive)
REMARK    1  A    between atoms: _1  and  _3
REMARK    2  A    between atoms: _3  and  _4
REMARK    3  A    between atoms: _3  and  _6
REMARK    4  A    between atoms: _6  and  _7
REMARK    5  A    between atoms: _10  and  _12
REMARK    6  A    between atoms: _12  and  _13
REMARK    7  A    between atoms: _12  and  _15
REMARK    8  A    between atoms: _15  and  _16
REMARK    9  A    between atoms: _16  and  _17
REMARK   10  A    between atoms: _17  and  _18
REMARK   11  A    between atoms: _27  and  _29
REMARK   12  A    between atoms: _29  and  _30
REMARK   13  A    between atoms: _29  and  _32
REMARK   14  A    between atoms: _32  and  _33
REMARK   15  A    between atoms: _38  and  _39
REMARK   16  A    between atoms: _41  and  _43
REMARK   17  A    between atoms: _43  and  _44
REMARK   18  A    between atoms: _43  and  _46
REMARK   19  A    between atoms: _46  and  _47
REMARK   20  A    between atoms: _53  and  _55
REMARK   21  A    between atoms: _55  and  _56
REMARK   22  A    between atoms: _55  and  _58
REMARK   23  A    between atoms: _61  and  _63
REMARK   24  A    between atoms: _63  and  _64
REMARK   25  A    between atoms: _63  and  _66
REMARK   26  A    between atoms: _66  and  _67
REMARK   27  A    between atoms: _70  and  _72
REMARK   28  A    between atoms: _72  and  _73
REMARK   29  A    between atoms: _72  and  _75
REMARK   30  A    between atoms: _75  and  _76
REMARK   31  A    between atoms: _81  and  _82
REMARK   32  A    between atoms: _84  and  _86
REMARK   33  A    between atoms: _86  and  _87
REMARK   34  A    between atoms: _86  and  _89
REMARK   35  A    between atoms: _89  and  _90
REMARK   36  A    between atoms: _90  and  _91
REMARK   37  A    between atoms: _93  and  _95
REMARK   38  A    between atoms: _95  and  _96
REMARK   39  A    between atoms: _95  and  _98
REMARK   40  A    between atoms: _98  and  _99
REMARK   41  A    between atoms: _99  and  _100
REMARK   42  A    between atoms: _103  and  _105
REMARK   43  A    between atoms: _105  and  _106
REMARK   44  A    between atoms: _105  and  _108
REMARK   45  A    between atoms: _111  and  _113
REMARK   46  A    between atoms: _113  and  _114
REMARK   47  A    between atoms: _116  and  _118
REMARK   48  A    between atoms: _118  and  _119
REMARK   49  A    between atoms: _118  and  _121
REMARK   50  A    between atoms: _121  and  _122
REMARK   51  A    between atoms: _128  and  _130
REMARK   52  A    between atoms: _130  and  _131
REMARK   53  A    between atoms: _130  and  _133
REMARK   54  A    between atoms: _136  and  _138
REMARK   55  A    between atoms: _138  and  _139
REMARK   56  A    between atoms: _138  and  _141
REMARK   57  A    between atoms: _141  and  _142
REMARK   58  A    between atoms: _148  and  _150
REMARK   59  A    between atoms: _150  and  _151
REMARK   60  A    between atoms: _150  and  _153
REMARK   61  A    between atoms: _153  and  _154
REMARK   62  A    between atoms: _159  and  _160
REMARK   63  A    between atoms: _162  and  _164
REMARK   64  A    between atoms: _164  and  _165
REMARK   65  A    between atoms: _164  and  _167
REMARK   66  A    between atoms: _167  and  _168
REMARK   67  A    between atoms: _168  and  _169
REMARK   68  A    between atoms: _171  and  _173
REMARK   69  A    between atoms: _173  and  _174
REMARK   70  A    between atoms: _173  and  _176
REMARK   71  A    between atoms: _176  and  _177
REMARK   72  A    between atoms: _182  and  _183
REMARK   73  A    between atoms: _185  and  _187
REMARK   74  A    between atoms: _187  and  _188
REMARK   75  A    between atoms: _187  and  _190
REMARK   76  A    between atoms: _190  and  _191
REMARK   77  A    between atoms: _191  and  _192
REMARK   78  A    between atoms: _192  and  _193
REMARK   79  A    between atoms: _202  and  _204
REMARK   80  A    between atoms: _204  and  _205
REMARK   81  A    between atoms: _204  and  _207
REMARK   82  A    between atoms: _207  and  _208
REMARK   83  A    between atoms: _208  and  _209
REMARK   84  A    between atoms: _212  and  _214
REMARK   85  A    between atoms: _214  and  _215
REMARK   86  A    between atoms: _214  and  _217
REMARK   87  A    between atoms: _217  and  _218
REMARK   88  A    between atoms: _218  and  _219
REMARK   89  A    between atoms: _219  and  _220
REMARK   90  A    between atoms: _220  and  _221
REMARK   91  A    between atoms: _225  and  _227
REMARK   92  A    between atoms: _227  and  _228
REMARK   93  A    between atoms: _231  and  _233
REMARK   94  A    between atoms: _233  and  _234
REMARK   95  A    between atoms: _236  and  _238
REMARK   96  A    between atoms: _238  and  _239
REMARK   97  A    between atoms: _238  and  _241
REMARK   98  A    between atoms: _241  and  _242
REMARK   99  A    between atoms: _247  and  _249
REMARK  100  A    between atoms: _249  and  _250
REMARK  101  A    between atoms: _249  and  _252
REMARK  102  A    between atoms: _252  and  _253
REMARK  103  A    between atoms: _253  and  _254
REMARK  104  A    between atoms: _257  and  _259
REMARK  105  A    between atoms: _259  and  _260
REMARK  106  A    between atoms: _259  and  _262
REMARK  107  A    between atoms: _262  and  _263
REMARK  108  A    between atoms: _263  and  _264
REMARK  109  A    between atoms: _269  and  _271
REMARK  110  A    between atoms: _271  and  _272
REMARK  111  A    between atoms: _271  and  _274
REMARK  112  A    between atoms: _274  and  _275
REMARK  113  A    between atoms: _277  and  _279
REMARK  114  A    between atoms: _279  and  _280
REMARK  115  A    between atoms: _279  and  _282
REMARK  116  A    between atoms: _282  and  _283
REMARK  117  A    between atoms: _289  and  _291
REMARK  118  A    between atoms: _291  and  _292
REMARK  119  A    between atoms: _291  and  _294
REMARK  120  A    between atoms: _294  and  _295
REMARK  121  A    between atoms: _295  and  _296
REMARK  122  A    between atoms: _296  and  _297
REMARK  123  A    between atoms: _306  and  _308
REMARK  124  A    between atoms: _308  and  _309
REMARK  125  A    between atoms: _308  and  _311
REMARK  126  A    between atoms: _314  and  _316
REMARK  127  A    between atoms: _316  and  _317
REMARK  128  A    between atoms: _316  and  _319
REMARK  129  A    between atoms: _319  and  _320
REMARK  130  A    between atoms: _323  and  _325
REMARK  131  A    between atoms: _325  and  _326
REMARK  132  A    between atoms: _325  and  _328
REMARK  133  A    between atoms: _328  and  _329
REMARK  134  A    between atoms: _332  and  _334
REMARK  135  A    between atoms: _334  and  _335
REMARK  136  A    between atoms: _334  and  _337
REMARK  137  A    between atoms: _337  and  _338
REMARK  138  A    between atoms: _338  and  _339
REMARK  139  A    between atoms: _339  and  _340
REMARK  140  A    between atoms: _349  and  _351
REMARK  141  A    between atoms: _351  and  _352
REMARK  142  A    between atoms: _351  and  _354
REMARK  143  A    between atoms: _354  and  _355
REMARK  144  A    between atoms: _358  and  _360
REMARK  145  A    between atoms: _360  and  _361
REMARK  146  A    between atoms: _360  and  _363
REMARK  147  A    between atoms: _363  and  _364
REMARK  148  A    between atoms: _367  and  _369
REMARK  149  A    between atoms: _369  and  _370
REMARK  150  A    between atoms: _369  and  _372
REMARK  151  A    between atoms: _372  and  _373
REMARK  152  A    between atoms: _378  and  _379
REMARK  153  A    between atoms: _381  and  _383
REMARK  154  A    between atoms: _383  and  _384
REMARK  155  A    between atoms: _383  and  _386
REMARK  156  A    between atoms: _386  and  _387
REMARK  157  A    between atoms: _392  and  _393
REMARK  158  A    between atoms: _395  and  _397
REMARK  159  A    between atoms: _397  and  _398
REMARK  160  A    between atoms: _397  and  _400
REMARK  161  A    between atoms: _400  and  _401
REMARK  162  A    between atoms: _404  and  _406
REMARK  163  A    between atoms: _406  and  _407
REMARK  164  A    between atoms: _406  and  _409
REMARK  165  A    between atoms: _409  and  _410
REMARK  166  A    between atoms: _410  and  _411
REMARK  167  A    between atoms: _416  and  _418
REMARK  168  A    between atoms: _418  and  _419
REMARK  169  A    between atoms: _418  and  _421
REMARK  170  A    between atoms: _424  and  _426
REMARK  171  A    between atoms: _426  and  _427
REMARK  172  A    between atoms: _426  and  _429
REMARK  173  A    between atoms: _429  and  _430
REMARK  174  A    between atoms: _433  and  _435
REMARK  175  A    between atoms: _435  and  _436
REMARK  176  A    between atoms: _435  and  _438
REMARK  177  A    between atoms: _438  and  _439
REMARK  178  A    between atoms: _441  and  _443
REMARK  179  A    between atoms: _443  and  _444
REMARK  180  A    between atoms: _446  and  _448
REMARK  181  A    between atoms: _448  and  _449
REMARK  182  A    between atoms: _448  and  _451
REMARK  183  A    between atoms: _451  and  _452
REMARK  184  A    between atoms: _452  and  _753
REMARK  185  A    between atoms: _453  and  _455
REMARK  186  A    between atoms: _455  and  _456
REMARK  187  A    between atoms: _455  and  _458
REMARK  188  A    between atoms: _458  and  _459
REMARK  189  A    between atoms: _464  and  _465
REMARK  190  A    between atoms: _467  and  _469
REMARK  191  A    between atoms: _469  and  _470
REMARK  192  A    between atoms: _469  and  _472
REMARK  193  A    between atoms: _472  and  _473
REMARK  194  A    between atoms: _473  and  _474
REMARK  195  A    between atoms: _479  and  _481
REMARK  196  A    between atoms: _481  and  _482
REMARK  197  A    between atoms: _481  and  _484
REMARK  198  A    between atoms: _484  and  _485
REMARK  199  A    between atoms: _485  and  _486
REMARK  200  A    between atoms: _491  and  _493
REMARK  201  A    between atoms: _493  and  _494
REMARK  202  A    between atoms: _493  and  _496
REMARK  203  A    between atoms: _496  and  _497
REMARK  204  A    between atoms: _502  and  _503
REMARK  205  A    between atoms: _505  and  _507
REMARK  206  A    between atoms: _507  and  _508
REMARK  207  A    between atoms: _511  and  _513
REMARK  208  A    between atoms: _513  and  _514
REMARK  209  A    between atoms: _513  and  _516
REMARK  210  A    between atoms: _516  and  _517
REMARK  211  A    between atoms: _522  and  _523
REMARK  212  A    between atoms: _525  and  _527
REMARK  213  A    between atoms: _527  and  _528
REMARK  214  A    between atoms: _527  and  _530
REMARK  215  A    between atoms: _530  and  _531
REMARK  216  A    between atoms: _536  and  _537
REMARK  217  A    between atoms: _539  and  _541
REMARK  218  A    between atoms: _541  and  _542
REMARK  219  A    between atoms: _541  and  _544
REMARK  220  A    between atoms: _544  and  _545
REMARK  221  A    between atoms: _548  and  _550
REMARK  222  A    between atoms: _550  and  _551
REMARK  223  A    between atoms: _554  and  _556
REMARK  224  A    between atoms: _556  and  _557
REMARK  225  A    between atoms: _560  and  _562
REMARK  226  A    between atoms: _562  and  _563
REMARK  227  A    between atoms: _562  and  _565
REMARK  228  A    between atoms: _565  and  _566
REMARK  229  A    between atoms: _569  and  _571
REMARK  230  A    between atoms: _571  and  _572
REMARK  231  A    between atoms: _571  and  _574
REMARK  232  A    between atoms: _574  and  _575
REMARK  233  A    between atoms: _578  and  _580
REMARK  234  A    between atoms: _580  and  _581
REMARK  235  A    between atoms: _580  and  _583
REMARK  236  A    between atoms: _583  and  _584
REMARK  237  A    between atoms: _587  and  _589
REMARK  238  A    between atoms: _589  and  _590
REMARK  239  A    between atoms: _589  and  _592
REMARK  240  A    between atoms: _592  and  _593
REMARK  241  A    between atoms: _593  and  _594
REMARK  242  A    between atoms: _594  and  _595
REMARK  243  A    between atoms: _595  and  _596
REMARK  244  A    between atoms: _600  and  _602
REMARK  245  A    between atoms: _602  and  _603
REMARK  246  A    between atoms: _602  and  _605
REMARK  247  A    between atoms: _605  and  _606
REMARK  248  A    between atoms: _611  and  _613
REMARK  249  A    between atoms: _613  and  _614
REMARK  250  A    between atoms: _613  and  _616
REMARK  251  A    between atoms: _616  and  _617
REMARK  252  A    between atoms: _617  and  _618
REMARK  253  A    between atoms: _618  and  _619
REMARK  254  A    between atoms: _619  and  _620
REMARK  255  A    between atoms: _624  and  _626
REMARK  256  A    between atoms: _626  and  _627
REMARK  257  A    between atoms: _626  and  _629
REMARK  258  A    between atoms: _629  and  _630
REMARK  259  A    between atoms: _640  and  _642
REMARK  260  A    between atoms: _642  and  _643
REMARK  261  A    between atoms: _646  and  _648
REMARK  262  A    between atoms: _648  and  _649
REMARK  263  A    between atoms: _648  and  _651
REMARK  264  A    between atoms: _651  and  _652
REMARK  265  A    between atoms: _652  and  _653
REMARK  266  A    between atoms: _656  and  _658
REMARK  267  A    between atoms: _658  and  _659
REMARK  268  A    between atoms: _658  and  _661
REMARK  269  A    between atoms: _661  and  _662
REMARK  270  A    between atoms: _662  and  _663
REMARK  271  A    between atoms: _666  and  _668
REMARK  272  A    between atoms: _668  and  _669
REMARK  273  A    between atoms: _668  and  _671
REMARK  274  A    between atoms: _671  and  _672
REMARK  275  A    between atoms: _672  and  _673
REMARK  276  A    between atoms: _673  and  _674
REMARK  277  A    between atoms: _683  and  _685
REMARK  278  A    between atoms: _685  and  _686
REMARK  279  A    between atoms: _685  and  _688
REMARK  280  A    between atoms: _688  and  _689
REMARK  281  A    between atoms: _692  and  _694
REMARK  282  A    between atoms: _694  and  _695
REMARK  283  A    between atoms: _694  and  _697
REMARK  284  A    between atoms: _697  and  _698
REMARK  285  A    between atoms: _698  and  _699
REMARK  286  A    between atoms: _699  and  _700
REMARK  287  A    between atoms: _709  and  _711
REMARK  288  A    between atoms: _711  and  _712
REMARK  289  A    between atoms: _715  and  _717
REMARK  290  A    between atoms: _717  and  _718
REMARK  291  A    between atoms: _717  and  _720
REMARK  292  A    between atoms: _720  and  _721
REMARK  293  A    between atoms: _726  and  _727
REMARK  294  A    between atoms: _729  and  _731
REMARK  295  A    between atoms: _731  and  _732
REMARK  296  A    between atoms: _731  and  _734
REMARK  297  A    between atoms: _734  and  _735
REMARK  298  A    between atoms: _738  and  _740
REMARK  299  A    between atoms: _740  and  _741
REMARK  300  A    between atoms: _740  and  _743
REMARK  301  A    between atoms: _743  and  _744
REMARK  302  A    between atoms: _747  and  _749
REMARK  303  A    between atoms: _749  and  _750
REMARK  304  A    between atoms: _749  and  _752
REMARK  305  A    between atoms: _752  and  _753
REMARK  306  A    between atoms: _754  and  _756
REMARK  307  A    between atoms: _756  and  _757
REMARK  308  A    between atoms: _756  and  _759
REMARK  309  A    between atoms: _762  and  _764
REMARK  310  A    between atoms: _764  and  _765
REMARK  311  A    between atoms: _764  and  _767
REMARK  312  A    between atoms: _767  and  _768
REMARK  313  A    between atoms: _768  and  _769
REMARK  314  A    between atoms: _772  and  _774
REMARK  315  A    between atoms: _774  and  _775
REMARK  316  A    between atoms: _774  and  _777
REMARK  317  A    between atoms: _777  and  _778
REMARK  318  A    between atoms: _788  and  _790
REMARK  319  A    between atoms: _790  and  _791
REMARK  320  A    between atoms: _790  and  _793
REMARK  321  A    between atoms: _793  and  _794
REMARK  322  A    between atoms: _797  and  _799
REMARK  323  A    between atoms: _799  and  _800
REMARK  324  A    between atoms: _799  and  _802
REMARK  325  A    between atoms: _802  and  _803
REMARK  326  A    between atoms: _808  and  _809
REMARK                            x       y       z     vdW  Elec       q    Type
REMARK                         _______ _______ _______ _____ _____    ______ ____
ROOT
ATOM      1  O   HOH     1     -11.286   9.443 -12.028  0.00  0.00    +0.000 OA
ENDROOT
TORSDOF 0
REMARK  Name = ../refined-set-2016/3p9m/3p9m_pocket.pdb
REMARK  326 active torsions:
REMARK  status: ('A' for Active; 'I' for Inactive)
REMARK    1  A    between atoms: _1  and  _3
REMARK    2  A    between atoms: _3  and  _4
REMARK    3  A    between atoms: _3  and  _6
REMARK    4  A    between atoms: _6  and  _7
REMARK    5  A    between atoms: _10  and  _12
REMARK    6  A    between atoms: _12  and  _13
REMARK    7  A    between atoms: _12  and  _15
REMARK    8  A    between atoms: _15  and  _16
REMARK    9  A    between atoms: _16  and  _17
REMARK   10  A    between atoms: _17  and  _18
REMARK   11  A    between atoms: _27  and  _29
REMARK   12  A    between atoms: _29  and  _30
REMARK   13  A    between atoms: _29  and  _32
REMARK   14  A    between atoms: _32  and  _33
REMARK   15  A    between atoms: _38  and  _39
REMARK   16  A    between atoms: _41  and  _43
REMARK   17  A    between atoms: _43  and  _44
REMARK   18  A    between atoms: _43  and  _46
REMARK   19  A    between atoms: _46  and  _47
REMARK   20  A    between atoms: _53  and  _55
REMARK   21  A    between atoms: _55  and  _56
REMARK   22  A    between atoms: _55  and  _58
REMARK   23  A    between atoms: _61  and  _63
REMARK   24  A    between atoms: _63  and  _64
REMARK   25  A    between atoms: _63  and  _66
REMARK   26  A    between atoms: _66  and  _67
REMARK   27  A    between atoms: _70  and  _72
REMARK   28  A    between atoms: _72  and  _73
REMARK   29  A    between atoms: _72  and  _75
REMARK   30  A    between atoms: _75  and  _76
REMARK   31  A    between atoms: _81  and  _82
REMARK   32  A    between atoms: _84  and  _86
REMARK   33  A    between atoms: _86  and  _87
REMARK   34  A    between atoms: _86  and  _89
REMARK   35  A    between atoms: _89  and  _90
REMARK   36  A    between atoms: _90  and  _91
REMARK   37  A    between atoms: _93  and  _95
REMARK   38  A    between atoms: _95  and  _96
REMARK   39  A    between atoms: _95  and  _98
REMARK   40  A    between atoms: _98  and  _99
REMARK   41  A    between atoms: _99  and  _100
REMARK   42  A    between atoms: _103  and  _105
REMARK   43  A    between atoms: _105  and  _106
REMARK   44  A    between atoms: _105  and  _108
REMARK   45  A    between atoms: _111  and  _113
REMARK   46  A    between atoms: _113  and  _114
REMARK   47  A    between atoms: _116  and  _118
REMARK   48  A    between atoms: _118  and  _119
REMARK   49  A    between atoms: _118  and  _121
REMARK   50  A    between atoms: _121  and  _122
REMARK   51  A    between atoms: _128  and  _130
REMARK   52  A    between atoms: _130  and  _131
REMARK   53  A    between atoms: _130  and  _133
REMARK   54  A    between atoms: _136  and  _138
REMARK   55  A    between atoms: _138  and  _139
REMARK   56  A    between atoms: _138  and  _141
REMARK   57  A    between atoms: _141  and  _142
REMARK   58  A    between atoms: _148  and  _150
REMARK   59  A    between atoms: _150  and  _151
REMARK   60  A    between atoms: _150  and  _153
REMARK   61  A    between atoms: _153  and  _154
REMARK   62  A    between atoms: _159  and  _160
REMARK   63  A    between atoms: _162  and  _164
REMARK   64  A    between atoms: _164  and  _165
REMARK   65  A    between atoms: _164  and  _167
REMARK   66  A    between atoms: _167  and  _168
REMARK   67  A    between atoms: _168  and  _169
REMARK   68  A    between atoms: _171  and  _173
REMARK   69  A    between atoms: _173  and  _174
REMARK   70  A    between atoms: _173  and  _176
REMARK   71  A    between atoms: _176  and  _177
REMARK   72  A    between atoms: _182  and  _183
REMARK   73  A    between atoms: _185  and  _187
REMARK   74  A    between atoms: _187  and  _188
REMARK   75  A    between atoms: _187  and  _190
REMARK   76  A    between atoms: _190  and  _191
REMARK   77  A    between atoms: _191  and  _192
REMARK   78  A    between atoms: _192  and  _193
REMARK   79  A    between atoms: _202  and  _204
REMARK   80  A    between atoms: _204  and  _205
REMARK   81  A    between atoms: _204  and  _207
REMARK   82  A    between atoms: _207  and  _208
REMARK   83  A    between atoms: _208  and  _209
REMARK   84  A    between atoms: _212  and  _214
REMARK   85  A    between atoms: _214  and  _215
REMARK   86  A    between atoms: _214  and  _217
REMARK   87  A    between atoms: _217  and  _218
REMARK   88  A    between atoms: _218  and  _219
REMARK   89  A    between atoms: _219  and  _220
REMARK   90  A    between atoms: _220  and  _221
REMARK   91  A    between atoms: _225  and  _227
REMARK   92  A    between atoms: _227  and  _228
REMARK   93  A    between atoms: _231  and  _233
REMARK   94  A    between atoms: _233  and  _234
REMARK   95  A    between atoms: _236  and  _238
REMARK   96  A    between atoms: _238  and  _239
REMARK   97  A    between atoms: _238  and  _241
REMARK   98  A    between atoms: _241  and  _242
REMARK   99  A    between atoms: _247  and  _249
REMARK  100  A    between atoms: _249  and  _250
REMARK  101  A    between atoms: _249  and  _252
REMARK  102  A    between atoms: _252  and  _253
REMARK  103  A    between atoms: _253  and  _254
REMARK  104  A    between atoms: _257  and  _259
REMARK  105  A    between atoms: _259  and  _260
REMARK  106  A    between atoms: _259  and  _262
REMARK  107  A    between atoms: _262  and  _263
REMARK  108  A    between atoms: _263  and  _264
REMARK  109  A    between atoms: _269  and  _271
REMARK  110  A    between atoms: _271  and  _272
REMARK  111  A    between atoms: _271  and  _274
REMARK  112  A    between atoms: _274  and  _275
REMARK  113  A    between atoms: _277  and  _279
REMARK  114  A    between atoms: _279  and  _280
REMARK  115  A    between atoms: _279  and  _282
REMARK  116  A    between atoms: _282  and  _283
REMARK  117  A    between atoms: _289  and  _291
REMARK  118  A    between atoms: _291  and  _292
REMARK  119  A    between atoms: _291  and  _294
REMARK  120  A    between atoms: _294  and  _295
REMARK  121  A    between atoms: _295  and  _296
REMARK  122  A    between atoms: _296  and  _297
REMARK  123  A    between atoms: _306  and  _308
REMARK  124  A    between atoms: _308  and  _309
REMARK  125  A    between atoms: _308  and  _311
REMARK  126  A    between atoms: _314  and  _316
REMARK  127  A    between atoms: _316  and  _317
REMARK  128  A    between atoms: _316  and  _319
REMARK  129  A    between atoms: _319  and  _320
REMARK  130  A    between atoms: _323  and  _325
REMARK  131  A    between atoms: _325  and  _326
REMARK  132  A    between atoms: _325  and  _328
REMARK  133  A    between atoms: _328  and  _329
REMARK  134  A    between atoms: _332  and  _334
REMARK  135  A    between atoms: _334  and  _335
REMARK  136  A    between atoms: _334  and  _337
REMARK  137  A    between atoms: _337  and  _338
REMARK  138  A    between atoms: _338  and  _339
REMARK  139  A    between atoms: _339  and  _340
REMARK  140  A    between atoms: _349  and  _351
REMARK  141  A    between atoms: _351  and  _352
REMARK  142  A    between atoms: _351  and  _354
REMARK  143  A    between atoms: _354  and  _355
REMARK  144  A    between atoms: _358  and  _360
REMARK  145  A    between atoms: _360  and  _361
REMARK  146  A    between atoms: _360  and  _363
REMARK  147  A    between atoms: _363  and  _364
REMARK  148  A    between atoms: _367  and  _369
REMARK  149  A    between atoms: _369  and  _370
REMARK  150  A    between atoms: _369  and  _372
REMARK  151  A    between atoms: _372  and  _373
REMARK  152  A    between atoms: _378  and  _379
REMARK  153  A    between atoms: _381  and  _383
REMARK  154  A    between atoms: _383  and  _384
REMARK  155  A    between atoms: _383  and  _386
REMARK  156  A    between atoms: _386  and  _387
REMARK  157  A    between atoms: _392  and  _393
REMARK  158  A    between atoms: _395  and  _397
REMARK  159  A    between atoms: _397  and  _398
REMARK  160  A    between atoms: _397  and  _400
REMARK  161  A    between atoms: _400  and  _401
REMARK  162  A    between atoms: _404  and  _406
REMARK  163  A    between atoms: _406  and  _407
REMARK  164  A    between atoms: _406  and  _409
REMARK  165  A    between atoms: _409  and  _410
REMARK  166  A    between atoms: _410  and  _411
REMARK  167  A    between atoms: _416  and  _418
REMARK  168  A    between atoms: _418  and  _419
REMARK  169  A    between atoms: _418  and  _421
REMARK  170  A    between atoms: _424  and  _426
REMARK  171  A    between atoms: _426  and  _427
REMARK  172  A    between atoms: _426  and  _429
REMARK  173  A    between atoms: _429  and  _430
REMARK  174  A    between atoms: _433  and  _435
REMARK  175  A    between atoms: _435  and  _436
REMARK  176  A    between atoms: _435  and  _438
REMARK  177  A    between atoms: _438  and  _439
REMARK  178  A    between atoms: _441  and  _443
REMARK  179  A    between atoms: _443  and  _444
REMARK  180  A    between atoms: _446  and  _448
REMARK  181  A    between atoms: _448  and  _449
REMARK  182  A    between atoms: _448  and  _451
REMARK  183  A    between atoms: _451  and  _452
REMARK  184  A    between atoms: _452  and  _753
REMARK  185  A    between atoms: _453  and  _455
REMARK  186  A    between atoms: _455  and  _456
REMARK  187  A    between atoms: _455  and  _458
REMARK  188  A    between atoms: _458  and  _459
REMARK  189  A    between atoms: _464  and  _465
REMARK  190  A    between atoms: _467  and  _469
REMARK  191  A    between atoms: _469  and  _470
REMARK  192  A    between atoms: _469  and  _472
REMARK  193  A    between atoms: _472  and  _473
REMARK  194  A    between atoms: _473  and  _474
REMARK  195  A    between atoms: _479  and  _481
REMARK  196  A    between atoms: _481  and  _482
REMARK  197  A    between atoms: _481  and  _484
REMARK  198  A    between atoms: _484  and  _485
REMARK  199  A    between atoms: _485  and  _486
REMARK  200  A    between atoms: _491  and  _493
REMARK  201  A    between atoms: _493  and  _494
REMARK  202  A    between atoms: _493  and  _496
REMARK  203  A    between atoms: _496  and  _497
REMARK  204  A    between atoms: _502  and  _503
REMARK  205  A    between atoms: _505  and  _507
REMARK  206  A    between atoms: _507  and  _508
REMARK  207  A    between atoms: _511  and  _513
REMARK  208  A    between atoms: _513  and  _514
REMARK  209  A    between atoms: _513  and  _516
REMARK  210  A    between atoms: _516  and  _517
REMARK  211  A    between atoms: _522  and  _523
REMARK  212  A    between atoms: _525  and  _527
REMARK  213  A    between atoms: _527  and  _528
REMARK  214  A    between atoms: _527  and  _530
REMARK  215  A    between atoms: _530  and  _531
REMARK  216  A    between atoms: _536  and  _537
REMARK  217  A    between atoms: _539  and  _541
REMARK  218  A    between atoms: _541  and  _542
REMARK  219  A    between atoms: _541  and  _544
REMARK  220  A    between atoms: _544  and  _545
REMARK  221  A    between atoms: _548  and  _550
REMARK  222  A    between atoms: _550  and  _551
REMARK  223  A    between atoms: _554  and  _556
REMARK  224  A    between atoms: _556  and  _557
REMARK  225  A    between atoms: _560  and  _562
REMARK  226  A    between atoms: _562  and  _563
REMARK  227  A    between atoms: _562  and  _565
REMARK  228  A    between atoms: _565  and  _566
REMARK  229  A    between atoms: _569  and  _571
REMARK  230  A    between atoms: _571  and  _572
REMARK  231  A    between atoms: _571  and  _574
REMARK  232  A    between atoms: _574  and  _575
REMARK  233  A    between atoms: _578  and  _580
REMARK  234  A    between atoms: _580  and  _581
REMARK  235  A    between atoms: _580  and  _583
REMARK  236  A    between atoms: _583  and  _584
REMARK  237  A    between atoms: _587  and  _589
REMARK  238  A    between atoms: _589  and  _590
REMARK  239  A    between atoms: _589  and  _592
REMARK  240  A    between atoms: _592  and  _593
REMARK  241  A    between atoms: _593  and  _594
REMARK  242  A    between atoms: _594  and  _595
REMARK  243  A    between atoms: _595  and  _596
REMARK  244  A    between atoms: _600  and  _602
REMARK  245  A    between atoms: _602  and  _603
REMARK  246  A    between atoms: _602  and  _605
REMARK  247  A    between atoms: _605  and  _606
REMARK  248  A    between atoms: _611  and  _613
REMARK  249  A    between atoms: _613  and  _614
REMARK  250  A    between atoms: _613  and  _616
REMARK  251  A    between atoms: _616  and  _617
REMARK  252  A    between atoms: _617  and  _618
REMARK  253  A    between atoms: _618  and  _619
REMARK  254  A    between atoms: _619  and  _620
REMARK  255  A    between atoms: _624  and  _626
REMARK  256  A    between atoms: _626  and  _627
REMARK  257  A    between atoms: _626  and  _629
REMARK  258  A    between atoms: _629  and  _630
REMARK  259  A    between atoms: _640  and  _642
REMARK  260  A    between atoms: _642  and  _643
REMARK  261  A    between atoms: _646  and  _648
REMARK  262  A    between atoms: _648  and  _649
REMARK  263  A    between atoms: _648  and  _651
REMARK  264  A    between atoms: _651  and  _652
REMARK  265  A    between atoms: _652  and  _653
REMARK  266  A    between atoms: _656  and  _658
REMARK  267  A    between atoms: _658  and  _659
REMARK  268  A    between atoms: _658  and  _661
REMARK  269  A    between atoms: _661  and  _662
REMARK  270  A    between atoms: _662  and  _663
REMARK  271  A    between atoms: _666  and  _668
REMARK  272  A    between atoms: _668  and  _669
REMARK  273  A    between atoms: _668  and  _671
REMARK  274  A    between atoms: _671  and  _672
REMARK  275  A    between atoms: _672  and  _673
REMARK  276  A    between atoms: _673  and  _674
REMARK  277  A    between atoms: _683  and  _685
REMARK  278  A    between atoms: _685  and  _686
REMARK  279  A    between atoms: _685  and  _688
REMARK  280  A    between atoms: _688  and  _689
REMARK  281  A    between atoms: _692  and  _694
REMARK  282  A    between atoms: _694  and  _695
REMARK  283  A    between atoms: _694  and  _697
REMARK  284  A    between atoms: _697  and  _698
REMARK  285  A    between atoms: _698  and  _699
REMARK  286  A    between atoms: _699  and  _700
REMARK  287  A    between atoms: _709  and  _711
REMARK  288  A    between atoms: _711  and  _712
REMARK  289  A    between atoms: _715  and  _717
REMARK  290  A    between atoms: _717  and  _718
REMARK  291  A    between atoms: _717  and  _720
REMARK  292  A    between atoms: _720  and  _721
REMARK  293  A    between atoms: _726  and  _727
REMARK  294  A    between atoms: _729  and  _731
REMARK  295  A    between atoms: _731  and  _732
REMARK  296  A    between atoms: _731  and  _734
REMARK  297  A    between atoms: _734  and  _735
REMARK  298  A    between atoms: _738  and  _740
REMARK  299  A    between atoms: _740  and  _741
REMARK  300  A    between atoms: _740  and  _743
REMARK  301  A    between atoms: _743  and  _744
REMARK  302  A    between atoms: _747  and  _749
REMARK  303  A    between atoms: _749  and  _750
REMARK  304  A    between atoms: _749  and  _752
REMARK  305  A    between atoms: _752  and  _753
REMARK  306  A    between atoms: _754  and  _756
REMARK  307  A    between atoms: _756  and  _757
REMARK  308  A    between atoms: _756  and  _759
REMARK  309  A    between atoms: _762  and  _764
REMARK  310  A    between atoms: _764  and  _765
REMARK  311  A    between atoms: _764  and  _767
REMARK  312  A    between atoms: _767  and  _768
REMARK  313  A    between atoms: _768  and  _769
REMARK  314  A    between atoms: _772  and  _774
REMARK  315  A    between atoms: _774  and  _775
REMARK  316  A    between atoms: _774  and  _777
REMARK  317  A    between atoms: _777  and  _778
REMARK  318  A    between atoms: _788  and  _790
REMARK  319  A    between atoms: _790  and  _791
REMARK  320  A    between atoms: _790  and  _793
REMARK  321  A    between atoms: _793  and  _794
REMARK  322  A    between atoms: _797  and  _799
REMARK  323  A    between atoms: _799  and  _800
REMARK  324  A    between atoms: _799  and  _802
REMARK  325  A    between atoms: _802  and  _803
REMARK  326  A    between atoms: _808  and  _809
REMARK                            x       y       z     vdW  Elec       q    Type
REMARK                         _______ _______ _______ _____ _____    ______ ____
ROOT
ATOM      1  O   HOH     1      -6.824   7.393  -4.683  0.00  0.00    +0.000 OA
ENDROOT
TORSDOF 0
REMARK  Name = ../refined-set-2016/3p9m/3p9m_pocket.pdb
REMARK  326 active torsions:
REMARK  status: ('A' for Active; 'I' for Inactive)
REMARK    1  A    between atoms: _1  and  _3
REMARK    2  A    between atoms: _3  and  _4
REMARK    3  A    between atoms: _3  and  _6
REMARK    4  A    between atoms: _6  and  _7
REMARK    5  A    between atoms: _10  and  _12
REMARK    6  A    between atoms: _12  and  _13
REMARK    7  A    between atoms: _12  and  _15
REMARK    8  A    between atoms: _15  and  _16
REMARK    9  A    between atoms: _16  and  _17
REMARK   10  A    between atoms: _17  and  _18
REMARK   11  A    between atoms: _27  and  _29
REMARK   12  A    between atoms: _29  and  _30
REMARK   13  A    between atoms: _29  and  _32
REMARK   14  A    between atoms: _32  and  _33
REMARK   15  A    between atoms: _38  and  _39
REMARK   16  A    between atoms: _41  and  _43
REMARK   17  A    between atoms: _43  and  _44
REMARK   18  A    between atoms: _43  and  _46
REMARK   19  A    between atoms: _46  and  _47
REMARK   20  A    between atoms: _53  and  _55
REMARK   21  A    between atoms: _55  and  _56
REMARK   22  A    between atoms: _55  and  _58
REMARK   23  A    between atoms: _61  and  _63
REMARK   24  A    between atoms: _63  and  _64
REMARK   25  A    between atoms: _63  and  _66
REMARK   26  A    between atoms: _66  and  _67
REMARK   27  A    between atoms: _70  and  _72
REMARK   28  A    between atoms: _72  and  _73
REMARK   29  A    between atoms: _72  and  _75
REMARK   30  A    between atoms: _75  and  _76
REMARK   31  A    between atoms: _81  and  _82
REMARK   32  A    between atoms: _84  and  _86
REMARK   33  A    between atoms: _86  and  _87
REMARK   34  A    between atoms: _86  and  _89
REMARK   35  A    between atoms: _89  and  _90
REMARK   36  A    between atoms: _90  and  _91
REMARK   37  A    between atoms: _93  and  _95
REMARK   38  A    between atoms: _95  and  _96
REMARK   39  A    between atoms: _95  and  _98
REMARK   40  A    between atoms: _98  and  _99
REMARK   41  A    between atoms: _99  and  _100
REMARK   42  A    between atoms: _103  and  _105
REMARK   43  A    between atoms: _105  and  _106
REMARK   44  A    between atoms: _105  and  _108
REMARK   45  A    between atoms: _111  and  _113
REMARK   46  A    between atoms: _113  and  _114
REMARK   47  A    between atoms: _116  and  _118
REMARK   48  A    between atoms: _118  and  _119
REMARK   49  A    between atoms: _118  and  _121
REMARK   50  A    between atoms: _121  and  _122
REMARK   51  A    between atoms: _128  and  _130
REMARK   52  A    between atoms: _130  and  _131
REMARK   53  A    between atoms: _130  and  _133
REMARK   54  A    between atoms: _136  and  _138
REMARK   55  A    between atoms: _138  and  _139
REMARK   56  A    between atoms: _138  and  _141
REMARK   57  A    between atoms: _141  and  _142
REMARK   58  A    between atoms: _148  and  _150
REMARK   59  A    between atoms: _150  and  _151
REMARK   60  A    between atoms: _150  and  _153
REMARK   61  A    between atoms: _153  and  _154
REMARK   62  A    between atoms: _159  and  _160
REMARK   63  A    between atoms: _162  and  _164
REMARK   64  A    between atoms: _164  and  _165
REMARK   65  A    between atoms: _164  and  _167
REMARK   66  A    between atoms: _167  and  _168
REMARK   67  A    between atoms: _168  and  _169
REMARK   68  A    between atoms: _171  and  _173
REMARK   69  A    between atoms: _173  and  _174
REMARK   70  A    between atoms: _173  and  _176
REMARK   71  A    between atoms: _176  and  _177
REMARK   72  A    between atoms: _182  and  _183
REMARK   73  A    between atoms: _185  and  _187
REMARK   74  A    between atoms: _187  and  _188
REMARK   75  A    between atoms: _187  and  _190
REMARK   76  A    between atoms: _190  and  _191
REMARK   77  A    between atoms: _191  and  _192
REMARK   78  A    between atoms: _192  and  _193
REMARK   79  A    between atoms: _202  and  _204
REMARK   80  A    between atoms: _204  and  _205
REMARK   81  A    between atoms: _204  and  _207
REMARK   82  A    between atoms: _207  and  _208
REMARK   83  A    between atoms: _208  and  _209
REMARK   84  A    between atoms: _212  and  _214
REMARK   85  A    between atoms: _214  and  _215
REMARK   86  A    between atoms: _214  and  _217
REMARK   87  A    between atoms: _217  and  _218
REMARK   88  A    between atoms: _218  and  _219
REMARK   89  A    between atoms: _219  and  _220
REMARK   90  A    between atoms: _220  and  _221
REMARK   91  A    between atoms: _225  and  _227
REMARK   92  A    between atoms: _227  and  _228
REMARK   93  A    between atoms: _231  and  _233
REMARK   94  A    between atoms: _233  and  _234
REMARK   95  A    between atoms: _236  and  _238
REMARK   96  A    between atoms: _238  and  _239
REMARK   97  A    between atoms: _238  and  _241
REMARK   98  A    between atoms: _241  and  _242
REMARK   99  A    between atoms: _247  and  _249
REMARK  100  A    between atoms: _249  and  _250
REMARK  101  A    between atoms: _249  and  _252
REMARK  102  A    between atoms: _252  and  _253
REMARK  103  A    between atoms: _253  and  _254
REMARK  104  A    between atoms: _257  and  _259
REMARK  105  A    between atoms: _259  and  _260
REMARK  106  A    between atoms: _259  and  _262
REMARK  107  A    between atoms: _262  and  _263
REMARK  108  A    between atoms: _263  and  _264
REMARK  109  A    between atoms: _269  and  _271
REMARK  110  A    between atoms: _271  and  _272
REMARK  111  A    between atoms: _271  and  _274
REMARK  112  A    between atoms: _274  and  _275
REMARK  113  A    between atoms: _277  and  _279
REMARK  114  A    between atoms: _279  and  _280
REMARK  115  A    between atoms: _279  and  _282
REMARK  116  A    between atoms: _282  and  _283
REMARK  117  A    between atoms: _289  and  _291
REMARK  118  A    between atoms: _291  and  _292
REMARK  119  A    between atoms: _291  and  _294
REMARK  120  A    between atoms: _294  and  _295
REMARK  121  A    between atoms: _295  and  _296
REMARK  122  A    between atoms: _296  and  _297
REMARK  123  A    between atoms: _306  and  _308
REMARK  124  A    between atoms: _308  and  _309
REMARK  125  A    between atoms: _308  and  _311
REMARK  126  A    between atoms: _314  and  _316
REMARK  127  A    between atoms: _316  and  _317
REMARK  128  A    between atoms: _316  and  _319
REMARK  129  A    between atoms: _319  and  _320
REMARK  130  A    between atoms: _323  and  _325
REMARK  131  A    between atoms: _325  and  _326
REMARK  132  A    between atoms: _325  and  _328
REMARK  133  A    between atoms: _328  and  _329
REMARK  134  A    between atoms: _332  and  _334
REMARK  135  A    between atoms: _334  and  _335
REMARK  136  A    between atoms: _334  and  _337
REMARK  137  A    between atoms: _337  and  _338
REMARK  138  A    between atoms: _338  and  _339
REMARK  139  A    between atoms: _339  and  _340
REMARK  140  A    between atoms: _349  and  _351
REMARK  141  A    between atoms: _351  and  _352
REMARK  142  A    between atoms: _351  and  _354
REMARK  143  A    between atoms: _354  and  _355
REMARK  144  A    between atoms: _358  and  _360
REMARK  145  A    between atoms: _360  and  _361
REMARK  146  A    between atoms: _360  and  _363
REMARK  147  A    between atoms: _363  and  _364
REMARK  148  A    between atoms: _367  and  _369
REMARK  149  A    between atoms: _369  and  _370
REMARK  150  A    between atoms: _369  and  _372
REMARK  151  A    between atoms: _372  and  _373
REMARK  152  A    between atoms: _378  and  _379
REMARK  153  A    between atoms: _381  and  _383
REMARK  154  A    between atoms: _383  and  _384
REMARK  155  A    between atoms: _383  and  _386
REMARK  156  A    between atoms: _386  and  _387
REMARK  157  A    between atoms: _392  and  _393
REMARK  158  A    between atoms: _395  and  _397
REMARK  159  A    between atoms: _397  and  _398
REMARK  160  A    between atoms: _397  and  _400
REMARK  161  A    between atoms: _400  and  _401
REMARK  162  A    between atoms: _404  and  _406
REMARK  163  A    between atoms: _406  and  _407
REMARK  164  A    between atoms: _406  and  _409
REMARK  165  A    between atoms: _409  and  _410
REMARK  166  A    between atoms: _410  and  _411
REMARK  167  A    between atoms: _416  and  _418
REMARK  168  A    between atoms: _418  and  _419
REMARK  169  A    between atoms: _418  and  _421
REMARK  170  A    between atoms: _424  and  _426
REMARK  171  A    between atoms: _426  and  _427
REMARK  172  A    between atoms: _426  and  _429
REMARK  173  A    between atoms: _429  and  _430
REMARK  174  A    between atoms: _433  and  _435
REMARK  175  A    between atoms: _435  and  _436
REMARK  176  A    between atoms: _435  and  _438
REMARK  177  A    between atoms: _438  and  _439
REMARK  178  A    between atoms: _441  and  _443
REMARK  179  A    between atoms: _443  and  _444
REMARK  180  A    between atoms: _446  and  _448
REMARK  181  A    between atoms: _448  and  _449
REMARK  182  A    between atoms: _448  and  _451
REMARK  183  A    between atoms: _451  and  _452
REMARK  184  A    between atoms: _452  and  _753
REMARK  185  A    between atoms: _453  and  _455
REMARK  186  A    between atoms: _455  and  _456
REMARK  187  A    between atoms: _455  and  _458
REMARK  188  A    between atoms: _458  and  _459
REMARK  189  A    between atoms: _464  and  _465
REMARK  190  A    between atoms: _467  and  _469
REMARK  191  A    between atoms: _469  and  _470
REMARK  192  A    between atoms: _469  and  _472
REMARK  193  A    between atoms: _472  and  _473
REMARK  194  A    between atoms: _473  and  _474
REMARK  195  A    between atoms: _479  and  _481
REMARK  196  A    between atoms: _481  and  _482
REMARK  197  A    between atoms: _481  and  _484
REMARK  198  A    between atoms: _484  and  _485
REMARK  199  A    between atoms: _485  and  _486
REMARK  200  A    between atoms: _491  and  _493
REMARK  201  A    between atoms: _493  and  _494
REMARK  202  A    between atoms: _493  and  _496
REMARK  203  A    between atoms: _496  and  _497
REMARK  204  A    between atoms: _502  and  _503
REMARK  205  A    between atoms: _505  and  _507
REMARK  206  A    between atoms: _507  and  _508
REMARK  207  A    between atoms: _511  and  _513
REMARK  208  A    between atoms: _513  and  _514
REMARK  209  A    between atoms: _513  and  _516
REMARK  210  A    between atoms: _516  and  _517
REMARK  211  A    between atoms: _522  and  _523
REMARK  212  A    between atoms: _525  and  _527
REMARK  213  A    between atoms: _527  and  _528
REMARK  214  A    between atoms: _527  and  _530
REMARK  215  A    between atoms: _530  and  _531
REMARK  216  A    between atoms: _536  and  _537
REMARK  217  A    between atoms: _539  and  _541
REMARK  218  A    between atoms: _541  and  _542
REMARK  219  A    between atoms: _541  and  _544
REMARK  220  A    between atoms: _544  and  _545
REMARK  221  A    between atoms: _548  and  _550
REMARK  222  A    between atoms: _550  and  _551
REMARK  223  A    between atoms: _554  and  _556
REMARK  224  A    between atoms: _556  and  _557
REMARK  225  A    between atoms: _560  and  _562
REMARK  226  A    between atoms: _562  and  _563
REMARK  227  A    between atoms: _562  and  _565
REMARK  228  A    between atoms: _565  and  _566
REMARK  229  A    between atoms: _569  and  _571
REMARK  230  A    between atoms: _571  and  _572
REMARK  231  A    between atoms: _571  and  _574
REMARK  232  A    between atoms: _574  and  _575
REMARK  233  A    between atoms: _578  and  _580
REMARK  234  A    between atoms: _580  and  _581
REMARK  235  A    between atoms: _580  and  _583
REMARK  236  A    between atoms: _583  and  _584
REMARK  237  A    between atoms: _587  and  _589
REMARK  238  A    between atoms: _589  and  _590
REMARK  239  A    between atoms: _589  and  _592
REMARK  240  A    between atoms: _592  and  _593
REMARK  241  A    between atoms: _593  and  _594
REMARK  242  A    between atoms: _594  and  _595
REMARK  243  A    between atoms: _595  and  _596
REMARK  244  A    between atoms: _600  and  _602
REMARK  245  A    between atoms: _602  and  _603
REMARK  246  A    between atoms: _602  and  _605
REMARK  247  A    between atoms: _605  and  _606
REMARK  248  A    between atoms: _611  and  _613
REMARK  249  A    between atoms: _613  and  _614
REMARK  250  A    between atoms: _613  and  _616
REMARK  251  A    between atoms: _616  and  _617
REMARK  252  A    between atoms: _617  and  _618
REMARK  253  A    between atoms: _618  and  _619
REMARK  254  A    between atoms: _619  and  _620
REMARK  255  A    between atoms: _624  and  _626
REMARK  256  A    between atoms: _626  and  _627
REMARK  257  A    between atoms: _626  and  _629
REMARK  258  A    between atoms: _629  and  _630
REMARK  259  A    between atoms: _640  and  _642
REMARK  260  A    between atoms: _642  and  _643
REMARK  261  A    between atoms: _646  and  _648
REMARK  262  A    between atoms: _648  and  _649
REMARK  263  A    between atoms: _648  and  _651
REMARK  264  A    between atoms: _651  and  _652
REMARK  265  A    between atoms: _652  and  _653
REMARK  266  A    between atoms: _656  and  _658
REMARK  267  A    between atoms: _658  and  _659
REMARK  268  A    between atoms: _658  and  _661
REMARK  269  A    between atoms: _661  and  _662
REMARK  270  A    between atoms: _662  and  _663
REMARK  271  A    between atoms: _666  and  _668
REMARK  272  A    between atoms: _668  and  _669
REMARK  273  A    between atoms: _668  and  _671
REMARK  274  A    between atoms: _671  and  _672
REMARK  275  A    between atoms: _672  and  _673
REMARK  276  A    between atoms: _673  and  _674
REMARK  277  A    between atoms: _683  and  _685
REMARK  278  A    between atoms: _685  and  _686
REMARK  279  A    between atoms: _685  and  _688
REMARK  280  A    between atoms: _688  and  _689
REMARK  281  A    between atoms: _692  and  _694
REMARK  282  A    between atoms: _694  and  _695
REMARK  283  A    between atoms: _694  and  _697
REMARK  284  A    between atoms: _697  and  _698
REMARK  285  A    between atoms: _698  and  _699
REMARK  286  A    between atoms: _699  and  _700
REMARK  287  A    between atoms: _709  and  _711
REMARK  288  A    between atoms: _711  and  _712
REMARK  289  A    between atoms: _715  and  _717
REMARK  290  A    between atoms: _717  and  _718
REMARK  291  A    between atoms: _717  and  _720
REMARK  292  A    between atoms: _720  and  _721
REMARK  293  A    between atoms: _726  and  _727
REMARK  294  A    between atoms: _729  and  _731
REMARK  295  A    between atoms: _731  and  _732
REMARK  296  A    between atoms: _731  and  _734
REMARK  297  A    between atoms: _734  and  _735
REMARK  298  A    between atoms: _738  and  _740
REMARK  299  A    between atoms: _740  and  _741
REMARK  300  A    between atoms: _740  and  _743
REMARK  301  A    between atoms: _743  and  _744
REMARK  302  A    between atoms: _747  and  _749
REMARK  303  A    between atoms: _749  and  _750
REMARK  304  A    between atoms: _749  and  _752
REMARK  305  A    between atoms: _752  and  _753
REMARK  306  A    between atoms: _754  and  _756
REMARK  307  A    between atoms: _756  and  _757
REMARK  308  A    between atoms: _756  and  _759
REMARK  309  A    between atoms: _762  and  _764
REMARK  310  A    between atoms: _764  and  _765
REMARK  311  A    between atoms: _764  and  _767
REMARK  312  A    between atoms: _767  and  _768
REMARK  313  A    between atoms: _768  and  _769
REMARK  314  A    between atoms: _772  and  _774
REMARK  315  A    between atoms: _774  and  _775
REMARK  316  A    between atoms: _774  and  _777
REMARK  317  A    between atoms: _777  and  _778
REMARK  318  A    between atoms: _788  and  _790
REMARK  319  A    between atoms: _790  and  _791
REMARK  320  A    between atoms: _790  and  _793
REMARK  321  A    between atoms: _793  and  _794
REMARK  322  A    between atoms: _797  and  _799
REMARK  323  A    between atoms: _799  and  _800
REMARK  324  A    between atoms: _799  and  _802
REMARK  325  A    between atoms: _802  and  _803
REMARK  326  A    between atoms: _808  and  _809
REMARK                            x       y       z     vdW  Elec       q    Type
REMARK                         _______ _______ _______ _____ _____    ______ ____
ROOT
ATOM      1  O   HOH     1      -8.455  13.127  -6.715  0.00  0.00    +0.000 OA
ENDROOT
TORSDOF 0
REMARK  Name = ../refined-set-2016/3p9m/3p9m_pocket.pdb
REMARK  326 active torsions:
REMARK  status: ('A' for Active; 'I' for Inactive)
REMARK    1  A    between atoms: _1  and  _3
REMARK    2  A    between atoms: _3  and  _4
REMARK    3  A    between atoms: _3  and  _6
REMARK    4  A    between atoms: _6  and  _7
REMARK    5  A    between atoms: _10  and  _12
REMARK    6  A    between atoms: _12  and  _13
REMARK    7  A    between atoms: _12  and  _15
REMARK    8  A    between atoms: _15  and  _16
REMARK    9  A    between atoms: _16  and  _17
REMARK   10  A    between atoms: _17  and  _18
REMARK   11  A    between atoms: _27  and  _29
REMARK   12  A    between atoms: _29  and  _30
REMARK   13  A    between atoms: _29  and  _32
REMARK   14  A    between atoms: _32  and  _33
REMARK   15  A    between atoms: _38  and  _39
REMARK   16  A    between atoms: _41  and  _43
REMARK   17  A    between atoms: _43  and  _44
REMARK   18  A    between atoms: _43  and  _46
REMARK   19  A    between atoms: _46  and  _47
REMARK   20  A    between atoms: _53  and  _55
REMARK   21  A    between atoms: _55  and  _56
REMARK   22  A    between atoms: _55  and  _58
REMARK   23  A    between atoms: _61  and  _63
REMARK   24  A    between atoms: _63  and  _64
REMARK   25  A    between atoms: _63  and  _66
REMARK   26  A    between atoms: _66  and  _67
REMARK   27  A    between atoms: _70  and  _72
REMARK   28  A    between atoms: _72  and  _73
REMARK   29  A    between atoms: _72  and  _75
REMARK   30  A    between atoms: _75  and  _76
REMARK   31  A    between atoms: _81  and  _82
REMARK   32  A    between atoms: _84  and  _86
REMARK   33  A    between atoms: _86  and  _87
REMARK   34  A    between atoms: _86  and  _89
REMARK   35  A    between atoms: _89  and  _90
REMARK   36  A    between atoms: _90  and  _91
REMARK   37  A    between atoms: _93  and  _95
REMARK   38  A    between atoms: _95  and  _96
REMARK   39  A    between atoms: _95  and  _98
REMARK   40  A    between atoms: _98  and  _99
REMARK   41  A    between atoms: _99  and  _100
REMARK   42  A    between atoms: _103  and  _105
REMARK   43  A    between atoms: _105  and  _106
REMARK   44  A    between atoms: _105  and  _108
REMARK   45  A    between atoms: _111  and  _113
REMARK   46  A    between atoms: _113  and  _114
REMARK   47  A    between atoms: _116  and  _118
REMARK   48  A    between atoms: _118  and  _119
REMARK   49  A    between atoms: _118  and  _121
REMARK   50  A    between atoms: _121  and  _122
REMARK   51  A    between atoms: _128  and  _130
REMARK   52  A    between atoms: _130  and  _131
REMARK   53  A    between atoms: _130  and  _133
REMARK   54  A    between atoms: _136  and  _138
REMARK   55  A    between atoms: _138  and  _139
REMARK   56  A    between atoms: _138  and  _141
REMARK   57  A    between atoms: _141  and  _142
REMARK   58  A    between atoms: _148  and  _150
REMARK   59  A    between atoms: _150  and  _151
REMARK   60  A    between atoms: _150  and  _153
REMARK   61  A    between atoms: _153  and  _154
REMARK   62  A    between atoms: _159  and  _160
REMARK   63  A    between atoms: _162  and  _164
REMARK   64  A    between atoms: _164  and  _165
REMARK   65  A    between atoms: _164  and  _167
REMARK   66  A    between atoms: _167  and  _168
REMARK   67  A    between atoms: _168  and  _169
REMARK   68  A    between atoms: _171  and  _173
REMARK   69  A    between atoms: _173  and  _174
REMARK   70  A    between atoms: _173  and  _176
REMARK   71  A    between atoms: _176  and  _177
REMARK   72  A    between atoms: _182  and  _183
REMARK   73  A    between atoms: _185  and  _187
REMARK   74  A    between atoms: _187  and  _188
REMARK   75  A    between atoms: _187  and  _190
REMARK   76  A    between atoms: _190  and  _191
REMARK   77  A    between atoms: _191  and  _192
REMARK   78  A    between atoms: _192  and  _193
REMARK   79  A    between atoms: _202  and  _204
REMARK   80  A    between atoms: _204  and  _205
REMARK   81  A    between atoms: _204  and  _207
REMARK   82  A    between atoms: _207  and  _208
REMARK   83  A    between atoms: _208  and  _209
REMARK   84  A    between atoms: _212  and  _214
REMARK   85  A    between atoms: _214  and  _215
REMARK   86  A    between atoms: _214  and  _217
REMARK   87  A    between atoms: _217  and  _218
REMARK   88  A    between atoms: _218  and  _219
REMARK   89  A    between atoms: _219  and  _220
REMARK   90  A    between atoms: _220  and  _221
REMARK   91  A    between atoms: _225  and  _227
REMARK   92  A    between atoms: _227  and  _228
REMARK   93  A    between atoms: _231  and  _233
REMARK   94  A    between atoms: _233  and  _234
REMARK   95  A    between atoms: _236  and  _238
REMARK   96  A    between atoms: _238  and  _239
REMARK   97  A    between atoms: _238  and  _241
REMARK   98  A    between atoms: _241  and  _242
REMARK   99  A    between atoms: _247  and  _249
REMARK  100  A    between atoms: _249  and  _250
REMARK  101  A    between atoms: _249  and  _252
REMARK  102  A    between atoms: _252  and  _253
REMARK  103  A    between atoms: _253  and  _254
REMARK  104  A    between atoms: _257  and  _259
REMARK  105  A    between atoms: _259  and  _260
REMARK  106  A    between atoms: _259  and  _262
REMARK  107  A    between atoms: _262  and  _263
REMARK  108  A    between atoms: _263  and  _264
REMARK  109  A    between atoms: _269  and  _271
REMARK  110  A    between atoms: _271  and  _272
REMARK  111  A    between atoms: _271  and  _274
REMARK  112  A    between atoms: _274  and  _275
REMARK  113  A    between atoms: _277  and  _279
REMARK  114  A    between atoms: _279  and  _280
REMARK  115  A    between atoms: _279  and  _282
REMARK  116  A    between atoms: _282  and  _283
REMARK  117  A    between atoms: _289  and  _291
REMARK  118  A    between atoms: _291  and  _292
REMARK  119  A    between atoms: _291  and  _294
REMARK  120  A    between atoms: _294  and  _295
REMARK  121  A    between atoms: _295  and  _296
REMARK  122  A    between atoms: _296  and  _297
REMARK  123  A    between atoms: _306  and  _308
REMARK  124  A    between atoms: _308  and  _309
REMARK  125  A    between atoms: _308  and  _311
REMARK  126  A    between atoms: _314  and  _316
REMARK  127  A    between atoms: _316  and  _317
REMARK  128  A    between atoms: _316  and  _319
REMARK  129  A    between atoms: _319  and  _320
REMARK  130  A    between atoms: _323  and  _325
REMARK  131  A    between atoms: _325  and  _326
REMARK  132  A    between atoms: _325  and  _328
REMARK  133  A    between atoms: _328  and  _329
REMARK  134  A    between atoms: _332  and  _334
REMARK  135  A    between atoms: _334  and  _335
REMARK  136  A    between atoms: _334  and  _337
REMARK  137  A    between atoms: _337  and  _338
REMARK  138  A    between atoms: _338  and  _339
REMARK  139  A    between atoms: _339  and  _340
REMARK  140  A    between atoms: _349  and  _351
REMARK  141  A    between atoms: _351  and  _352
REMARK  142  A    between atoms: _351  and  _354
REMARK  143  A    between atoms: _354  and  _355
REMARK  144  A    between atoms: _358  and  _360
REMARK  145  A    between atoms: _360  and  _361
REMARK  146  A    between atoms: _360  and  _363
REMARK  147  A    between atoms: _363  and  _364
REMARK  148  A    between atoms: _367  and  _369
REMARK  149  A    between atoms: _369  and  _370
REMARK  150  A    between atoms: _369  and  _372
REMARK  151  A    between atoms: _372  and  _373
REMARK  152  A    between atoms: _378  and  _379
REMARK  153  A    between atoms: _381  and  _383
REMARK  154  A    between atoms: _383  and  _384
REMARK  155  A    between atoms: _383  and  _386
REMARK  156  A    between atoms: _386  and  _387
REMARK  157  A    between atoms: _392  and  _393
REMARK  158  A    between atoms: _395  and  _397
REMARK  159  A    between atoms: _397  and  _398
REMARK  160  A    between atoms: _397  and  _400
REMARK  161  A    between atoms: _400  and  _401
REMARK  162  A    between atoms: _404  and  _406
REMARK  163  A    between atoms: _406  and  _407
REMARK  164  A    between atoms: _406  and  _409
REMARK  165  A    between atoms: _409  and  _410
REMARK  166  A    between atoms: _410  and  _411
REMARK  167  A    between atoms: _416  and  _418
REMARK  168  A    between atoms: _418  and  _419
REMARK  169  A    between atoms: _418  and  _421
REMARK  170  A    between atoms: _424  and  _426
REMARK  171  A    between atoms: _426  and  _427
REMARK  172  A    between atoms: _426  and  _429
REMARK  173  A    between atoms: _429  and  _430
REMARK  174  A    between atoms: _433  and  _435
REMARK  175  A    between atoms: _435  and  _436
REMARK  176  A    between atoms: _435  and  _438
REMARK  177  A    between atoms: _438  and  _439
REMARK  178  A    between atoms: _441  and  _443
REMARK  179  A    between atoms: _443  and  _444
REMARK  180  A    between atoms: _446  and  _448
REMARK  181  A    between atoms: _448  and  _449
REMARK  182  A    between atoms: _448  and  _451
REMARK  183  A    between atoms: _451  and  _452
REMARK  184  A    between atoms: _452  and  _753
REMARK  185  A    between atoms: _453  and  _455
REMARK  186  A    between atoms: _455  and  _456
REMARK  187  A    between atoms: _455  and  _458
REMARK  188  A    between atoms: _458  and  _459
REMARK  189  A    between atoms: _464  and  _465
REMARK  190  A    between atoms: _467  and  _469
REMARK  191  A    between atoms: _469  and  _470
REMARK  192  A    between atoms: _469  and  _472
REMARK  193  A    between atoms: _472  and  _473
REMARK  194  A    between atoms: _473  and  _474
REMARK  195  A    between atoms: _479  and  _481
REMARK  196  A    between atoms: _481  and  _482
REMARK  197  A    between atoms: _481  and  _484
REMARK  198  A    between atoms: _484  and  _485
REMARK  199  A    between atoms: _485  and  _486
REMARK  200  A    between atoms: _491  and  _493
REMARK  201  A    between atoms: _493  and  _494
REMARK  202  A    between atoms: _493  and  _496
REMARK  203  A    between atoms: _496  and  _497
REMARK  204  A    between atoms: _502  and  _503
REMARK  205  A    between atoms: _505  and  _507
REMARK  206  A    between atoms: _507  and  _508
REMARK  207  A    between atoms: _511  and  _513
REMARK  208  A    between atoms: _513  and  _514
REMARK  209  A    between atoms: _513  and  _516
REMARK  210  A    between atoms: _516  and  _517
REMARK  211  A    between atoms: _522  and  _523
REMARK  212  A    between atoms: _525  and  _527
REMARK  213  A    between atoms: _527  and  _528
REMARK  214  A    between atoms: _527  and  _530
REMARK  215  A    between atoms: _530  and  _531
REMARK  216  A    between atoms: _536  and  _537
REMARK  217  A    between atoms: _539  and  _541
REMARK  218  A    between atoms: _541  and  _542
REMARK  219  A    between atoms: _541  and  _544
REMARK  220  A    between atoms: _544  and  _545
REMARK  221  A    between atoms: _548  and  _550
REMARK  222  A    between atoms: _550  and  _551
REMARK  223  A    between atoms: _554  and  _556
REMARK  224  A    between atoms: _556  and  _557
REMARK  225  A    between atoms: _560  and  _562
REMARK  226  A    between atoms: _562  and  _563
REMARK  227  A    between atoms: _562  and  _565
REMARK  228  A    between atoms: _565  and  _566
REMARK  229  A    between atoms: _569  and  _571
REMARK  230  A    between atoms: _571  and  _572
REMARK  231  A    between atoms: _571  and  _574
REMARK  232  A    between atoms: _574  and  _575
REMARK  233  A    between atoms: _578  and  _580
REMARK  234  A    between atoms: _580  and  _581
REMARK  235  A    between atoms: _580  and  _583
REMARK  236  A    between atoms: _583  and  _584
REMARK  237  A    between atoms: _587  and  _589
REMARK  238  A    between atoms: _589  and  _590
REMARK  239  A    between atoms: _589  and  _592
REMARK  240  A    between atoms: _592  and  _593
REMARK  241  A    between atoms: _593  and  _594
REMARK  242  A    between atoms: _594  and  _595
REMARK  243  A    between atoms: _595  and  _596
REMARK  244  A    between atoms: _600  and  _602
REMARK  245  A    between atoms: _602  and  _603
REMARK  246  A    between atoms: _602  and  _605
REMARK  247  A    between atoms: _605  and  _606
REMARK  248  A    between atoms: _611  and  _613
REMARK  249  A    between atoms: _613  and  _614
REMARK  250  A    between atoms: _613  and  _616
REMARK  251  A    between atoms: _616  and  _617
REMARK  252  A    between atoms: _617  and  _618
REMARK  253  A    between atoms: _618  and  _619
REMARK  254  A    between atoms: _619  and  _620
REMARK  255  A    between atoms: _624  and  _626
REMARK  256  A    between atoms: _626  and  _627
REMARK  257  A    between atoms: _626  and  _629
REMARK  258  A    between atoms: _629  and  _630
REMARK  259  A    between atoms: _640  and  _642
REMARK  260  A    between atoms: _642  and  _643
REMARK  261  A    between atoms: _646  and  _648
REMARK  262  A    between atoms: _648  and  _649
REMARK  263  A    between atoms: _648  and  _651
REMARK  264  A    between atoms: _651  and  _652
REMARK  265  A    between atoms: _652  and  _653
REMARK  266  A    between atoms: _656  and  _658
REMARK  267  A    between atoms: _658  and  _659
REMARK  268  A    between atoms: _658  and  _661
REMARK  269  A    between atoms: _661  and  _662
REMARK  270  A    between atoms: _662  and  _663
REMARK  271  A    between atoms: _666  and  _668
REMARK  272  A    between atoms: _668  and  _669
REMARK  273  A    between atoms: _668  and  _671
REMARK  274  A    between atoms: _671  and  _672
REMARK  275  A    between atoms: _672  and  _673
REMARK  276  A    between atoms: _673  and  _674
REMARK  277  A    between atoms: _683  and  _685
REMARK  278  A    between atoms: _685  and  _686
REMARK  279  A    between atoms: _685  and  _688
REMARK  280  A    between atoms: _688  and  _689
REMARK  281  A    between atoms: _692  and  _694
REMARK  282  A    between atoms: _694  and  _695
REMARK  283  A    between atoms: _694  and  _697
REMARK  284  A    between atoms: _697  and  _698
REMARK  285  A    between atoms: _698  and  _699
REMARK  286  A    between atoms: _699  and  _700
REMARK  287  A    between atoms: _709  and  _711
REMARK  288  A    between atoms: _711  and  _712
REMARK  289  A    between atoms: _715  and  _717
REMARK  290  A    between atoms: _717  and  _718
REMARK  291  A    between atoms: _717  and  _720
REMARK  292  A    between atoms: _720  and  _721
REMARK  293  A    between atoms: _726  and  _727
REMARK  294  A    between atoms: _729  and  _731
REMARK  295  A    between atoms: _731  and  _732
REMARK  296  A    between atoms: _731  and  _734
REMARK  297  A    between atoms: _734  and  _735
REMARK  298  A    between atoms: _738  and  _740
REMARK  299  A    between atoms: _740  and  _741
REMARK  300  A    between atoms: _740  and  _743
REMARK  301  A    between atoms: _743  and  _744
REMARK  302  A    between atoms: _747  and  _749
REMARK  303  A    between atoms: _749  and  _750
REMARK  304  A    between atoms: _749  and  _752
REMARK  305  A    between atoms: _752  and  _753
REMARK  306  A    between atoms: _754  and  _756
REMARK  307  A    between atoms: _756  and  _757
REMARK  308  A    between atoms: _756  and  _759
REMARK  309  A    between atoms: _762  and  _764
REMARK  310  A    between atoms: _764  and  _765
REMARK  311  A    between atoms: _764  and  _767
REMARK  312  A    between atoms: _767  and  _768
REMARK  313  A    between atoms: _768  and  _769
REMARK  314  A    between atoms: _772  and  _774
REMARK  315  A    between atoms: _774  and  _775
REMARK  316  A    between atoms: _774  and  _777
REMARK  317  A    between atoms: _777  and  _778
REMARK  318  A    between atoms: _788  and  _790
REMARK  319  A    between atoms: _790  and  _791
REMARK  320  A    between atoms: _790  and  _793
REMARK  321  A    between atoms: _793  and  _794
REMARK  322  A    between atoms: _797  and  _799
REMARK  323  A    between atoms: _799  and  _800
REMARK  324  A    between atoms: _799  and  _802
REMARK  325  A    between atoms: _802  and  _803
REMARK  326  A    between atoms: _808  and  _809
REMARK                            x       y       z     vdW  Elec       q    Type
REMARK                         _______ _______ _______ _____ _____    ______ ____
ROOT
ATOM      1  O   HOH     1      -2.758  -2.054  -2.389  0.00  0.00    +0.000 OA
ENDROOT
TORSDOF 0
REMARK  Name = ../refined-set-2016/3p9m/3p9m_pocket.pdb
REMARK  326 active torsions:
REMARK  status: ('A' for Active; 'I' for Inactive)
REMARK    1  A    between atoms: _1  and  _3
REMARK    2  A    between atoms: _3  and  _4
REMARK    3  A    between atoms: _3  and  _6
REMARK    4  A    between atoms: _6  and  _7
REMARK    5  A    between atoms: _10  and  _12
REMARK    6  A    between atoms: _12  and  _13
REMARK    7  A    between atoms: _12  and  _15
REMARK    8  A    between atoms: _15  and  _16
REMARK    9  A    between atoms: _16  and  _17
REMARK   10  A    between atoms: _17  and  _18
REMARK   11  A    between atoms: _27  and  _29
REMARK   12  A    between atoms: _29  and  _30
REMARK   13  A    between atoms: _29  and  _32
REMARK   14  A    between atoms: _32  and  _33
REMARK   15  A    between atoms: _38  and  _39
REMARK   16  A    between atoms: _41  and  _43
REMARK   17  A    between atoms: _43  and  _44
REMARK   18  A    between atoms: _43  and  _46
REMARK   19  A    between atoms: _46  and  _47
REMARK   20  A    between atoms: _53  and  _55
REMARK   21  A    between atoms: _55  and  _56
REMARK   22  A    between atoms: _55  and  _58
REMARK   23  A    between atoms: _61  and  _63
REMARK   24  A    between atoms: _63  and  _64
REMARK   25  A    between atoms: _63  and  _66
REMARK   26  A    between atoms: _66  and  _67
REMARK   27  A    between atoms: _70  and  _72
REMARK   28  A    between atoms: _72  and  _73
REMARK   29  A    between atoms: _72  and  _75
REMARK   30  A    between atoms: _75  and  _76
REMARK   31  A    between atoms: _81  and  _82
REMARK   32  A    between atoms: _84  and  _86
REMARK   33  A    between atoms: _86  and  _87
REMARK   34  A    between atoms: _86  and  _89
REMARK   35  A    between atoms: _89  and  _90
REMARK   36  A    between atoms: _90  and  _91
REMARK   37  A    between atoms: _93  and  _95
REMARK   38  A    between atoms: _95  and  _96
REMARK   39  A    between atoms: _95  and  _98
REMARK   40  A    between atoms: _98  and  _99
REMARK   41  A    between atoms: _99  and  _100
REMARK   42  A    between atoms: _103  and  _105
REMARK   43  A    between atoms: _105  and  _106
REMARK   44  A    between atoms: _105  and  _108
REMARK   45  A    between atoms: _111  and  _113
REMARK   46  A    between atoms: _113  and  _114
REMARK   47  A    between atoms: _116  and  _118
REMARK   48  A    between atoms: _118  and  _119
REMARK   49  A    between atoms: _118  and  _121
REMARK   50  A    between atoms: _121  and  _122
REMARK   51  A    between atoms: _128  and  _130
REMARK   52  A    between atoms: _130  and  _131
REMARK   53  A    between atoms: _130  and  _133
REMARK   54  A    between atoms: _136  and  _138
REMARK   55  A    between atoms: _138  and  _139
REMARK   56  A    between atoms: _138  and  _141
REMARK   57  A    between atoms: _141  and  _142
REMARK   58  A    between atoms: _148  and  _150
REMARK   59  A    between atoms: _150  and  _151
REMARK   60  A    between atoms: _150  and  _153
REMARK   61  A    between atoms: _153  and  _154
REMARK   62  A    between atoms: _159  and  _160
REMARK   63  A    between atoms: _162  and  _164
REMARK   64  A    between atoms: _164  and  _165
REMARK   65  A    between atoms: _164  and  _167
REMARK   66  A    between atoms: _167  and  _168
REMARK   67  A    between atoms: _168  and  _169
REMARK   68  A    between atoms: _171  and  _173
REMARK   69  A    between atoms: _173  and  _174
REMARK   70  A    between atoms: _173  and  _176
REMARK   71  A    between atoms: _176  and  _177
REMARK   72  A    between atoms: _182  and  _183
REMARK   73  A    between atoms: _185  and  _187
REMARK   74  A    between atoms: _187  and  _188
REMARK   75  A    between atoms: _187  and  _190
REMARK   76  A    between atoms: _190  and  _191
REMARK   77  A    between atoms: _191  and  _192
REMARK   78  A    between atoms: _192  and  _193
REMARK   79  A    between atoms: _202  and  _204
REMARK   80  A    between atoms: _204  and  _205
REMARK   81  A    between atoms: _204  and  _207
REMARK   82  A    between atoms: _207  and  _208
REMARK   83  A    between atoms: _208  and  _209
REMARK   84  A    between atoms: _212  and  _214
REMARK   85  A    between atoms: _214  and  _215
REMARK   86  A    between atoms: _214  and  _217
REMARK   87  A    between atoms: _217  and  _218
REMARK   88  A    between atoms: _218  and  _219
REMARK   89  A    between atoms: _219  and  _220
REMARK   90  A    between atoms: _220  and  _221
REMARK   91  A    between atoms: _225  and  _227
REMARK   92  A    between atoms: _227  and  _228
REMARK   93  A    between atoms: _231  and  _233
REMARK   94  A    between atoms: _233  and  _234
REMARK   95  A    between atoms: _236  and  _238
REMARK   96  A    between atoms: _238  and  _239
REMARK   97  A    between atoms: _238  and  _241
REMARK   98  A    between atoms: _241  and  _242
REMARK   99  A    between atoms: _247  and  _249
REMARK  100  A    between atoms: _249  and  _250
REMARK  101  A    between atoms: _249  and  _252
REMARK  102  A    between atoms: _252  and  _253
REMARK  103  A    between atoms: _253  and  _254
REMARK  104  A    between atoms: _257  and  _259
REMARK  105  A    between atoms: _259  and  _260
REMARK  106  A    between atoms: _259  and  _262
REMARK  107  A    between atoms: _262  and  _263
REMARK  108  A    between atoms: _263  and  _264
REMARK  109  A    between atoms: _269  and  _271
REMARK  110  A    between atoms: _271  and  _272
REMARK  111  A    between atoms: _271  and  _274
REMARK  112  A    between atoms: _274  and  _275
REMARK  113  A    between atoms: _277  and  _279
REMARK  114  A    between atoms: _279  and  _280
REMARK  115  A    between atoms: _279  and  _282
REMARK  116  A    between atoms: _282  and  _283
REMARK  117  A    between atoms: _289  and  _291
REMARK  118  A    between atoms: _291  and  _292
REMARK  119  A    between atoms: _291  and  _294
REMARK  120  A    between atoms: _294  and  _295
REMARK  121  A    between atoms: _295  and  _296
REMARK  122  A    between atoms: _296  and  _297
REMARK  123  A    between atoms: _306  and  _308
REMARK  124  A    between atoms: _308  and  _309
REMARK  125  A    between atoms: _308  and  _311
REMARK  126  A    between atoms: _314  and  _316
REMARK  127  A    between atoms: _316  and  _317
REMARK  128  A    between atoms: _316  and  _319
REMARK  129  A    between atoms: _319  and  _320
REMARK  130  A    between atoms: _323  and  _325
REMARK  131  A    between atoms: _325  and  _326
REMARK  132  A    between atoms: _325  and  _328
REMARK  133  A    between atoms: _328  and  _329
REMARK  134  A    between atoms: _332  and  _334
REMARK  135  A    between atoms: _334  and  _335
REMARK  136  A    between atoms: _334  and  _337
REMARK  137  A    between atoms: _337  and  _338
REMARK  138  A    between atoms: _338  and  _339
REMARK  139  A    between atoms: _339  and  _340
REMARK  140  A    between atoms: _349  and  _351
REMARK  141  A    between atoms: _351  and  _352
REMARK  142  A    between atoms: _351  and  _354
REMARK  143  A    between atoms: _354  and  _355
REMARK  144  A    between atoms: _358  and  _360
REMARK  145  A    between atoms: _360  and  _361
REMARK  146  A    between atoms: _360  and  _363
REMARK  147  A    between atoms: _363  and  _364
REMARK  148  A    between atoms: _367  and  _369
REMARK  149  A    between atoms: _369  and  _370
REMARK  150  A    between atoms: _369  and  _372
REMARK  151  A    between atoms: _372  and  _373
REMARK  152  A    between atoms: _378  and  _379
REMARK  153  A    between atoms: _381  and  _383
REMARK  154  A    between atoms: _383  and  _384
REMARK  155  A    between atoms: _383  and  _386
REMARK  156  A    between atoms: _386  and  _387
REMARK  157  A    between atoms: _392  and  _393
REMARK  158  A    between atoms: _395  and  _397
REMARK  159  A    between atoms: _397  and  _398
REMARK  160  A    between atoms: _397  and  _400
REMARK  161  A    between atoms: _400  and  _401
REMARK  162  A    between atoms: _404  and  _406
REMARK  163  A    between atoms: _406  and  _407
REMARK  164  A    between atoms: _406  and  _409
REMARK  165  A    between atoms: _409  and  _410
REMARK  166  A    between atoms: _410  and  _411
REMARK  167  A    between atoms: _416  and  _418
REMARK  168  A    between atoms: _418  and  _419
REMARK  169  A    between atoms: _418  and  _421
REMARK  170  A    between atoms: _424  and  _426
REMARK  171  A    between atoms: _426  and  _427
REMARK  172  A    between atoms: _426  and  _429
REMARK  173  A    between atoms: _429  and  _430
REMARK  174  A    between atoms: _433  and  _435
REMARK  175  A    between atoms: _435  and  _436
REMARK  176  A    between atoms: _435  and  _438
REMARK  177  A    between atoms: _438  and  _439
REMARK  178  A    between atoms: _441  and  _443
REMARK  179  A    between atoms: _443  and  _444
REMARK  180  A    between atoms: _446  and  _448
REMARK  181  A    between atoms: _448  and  _449
REMARK  182  A    between atoms: _448  and  _451
REMARK  183  A    between atoms: _451  and  _452
REMARK  184  A    between atoms: _452  and  _753
REMARK  185  A    between atoms: _453  and  _455
REMARK  186  A    between atoms: _455  and  _456
REMARK  187  A    between atoms: _455  and  _458
REMARK  188  A    between atoms: _458  and  _459
REMARK  189  A    between atoms: _464  and  _465
REMARK  190  A    between atoms: _467  and  _469
REMARK  191  A    between atoms: _469  and  _470
REMARK  192  A    between atoms: _469  and  _472
REMARK  193  A    between atoms: _472  and  _473
REMARK  194  A    between atoms: _473  and  _474
REMARK  195  A    between atoms: _479  and  _481
REMARK  196  A    between atoms: _481  and  _482
REMARK  197  A    between atoms: _481  and  _484
REMARK  198  A    between atoms: _484  and  _485
REMARK  199  A    between atoms: _485  and  _486
REMARK  200  A    between atoms: _491  and  _493
REMARK  201  A    between atoms: _493  and  _494
REMARK  202  A    between atoms: _493  and  _496
REMARK  203  A    between atoms: _496  and  _497
REMARK  204  A    between atoms: _502  and  _503
REMARK  205  A    between atoms: _505  and  _507
REMARK  206  A    between atoms: _507  and  _508
REMARK  207  A    between atoms: _511  and  _513
REMARK  208  A    between atoms: _513  and  _514
REMARK  209  A    between atoms: _513  and  _516
REMARK  210  A    between atoms: _516  and  _517
REMARK  211  A    between atoms: _522  and  _523
REMARK  212  A    between atoms: _525  and  _527
REMARK  213  A    between atoms: _527  and  _528
REMARK  214  A    between atoms: _527  and  _530
REMARK  215  A    between atoms: _530  and  _531
REMARK  216  A    between atoms: _536  and  _537
REMARK  217  A    between atoms: _539  and  _541
REMARK  218  A    between atoms: _541  and  _542
REMARK  219  A    between atoms: _541  and  _544
REMARK  220  A    between atoms: _544  and  _545
REMARK  221  A    between atoms: _548  and  _550
REMARK  222  A    between atoms: _550  and  _551
REMARK  223  A    between atoms: _554  and  _556
REMARK  224  A    between atoms: _556  and  _557
REMARK  225  A    between atoms: _560  and  _562
REMARK  226  A    between atoms: _562  and  _563
REMARK  227  A    between atoms: _562  and  _565
REMARK  228  A    between atoms: _565  and  _566
REMARK  229  A    between atoms: _569  and  _571
REMARK  230  A    between atoms: _571  and  _572
REMARK  231  A    between atoms: _571  and  _574
REMARK  232  A    between atoms: _574  and  _575
REMARK  233  A    between atoms: _578  and  _580
REMARK  234  A    between atoms: _580  and  _581
REMARK  235  A    between atoms: _580  and  _583
REMARK  236  A    between atoms: _583  and  _584
REMARK  237  A    between atoms: _587  and  _589
REMARK  238  A    between atoms: _589  and  _590
REMARK  239  A    between atoms: _589  and  _592
REMARK  240  A    between atoms: _592  and  _593
REMARK  241  A    between atoms: _593  and  _594
REMARK  242  A    between atoms: _594  and  _595
REMARK  243  A    between atoms: _595  and  _596
REMARK  244  A    between atoms: _600  and  _602
REMARK  245  A    between atoms: _602  and  _603
REMARK  246  A    between atoms: _602  and  _605
REMARK  247  A    between atoms: _605  and  _606
REMARK  248  A    between atoms: _611  and  _613
REMARK  249  A    between atoms: _613  and  _614
REMARK  250  A    between atoms: _613  and  _616
REMARK  251  A    between atoms: _616  and  _617
REMARK  252  A    between atoms: _617  and  _618
REMARK  253  A    between atoms: _618  and  _619
REMARK  254  A    between atoms: _619  and  _620
REMARK  255  A    between atoms: _624  and  _626
REMARK  256  A    between atoms: _626  and  _627
REMARK  257  A    between atoms: _626  and  _629
REMARK  258  A    between atoms: _629  and  _630
REMARK  259  A    between atoms: _640  and  _642
REMARK  260  A    between atoms: _642  and  _643
REMARK  261  A    between atoms: _646  and  _648
REMARK  262  A    between atoms: _648  and  _649
REMARK  263  A    between atoms: _648  and  _651
REMARK  264  A    between atoms: _651  and  _652
REMARK  265  A    between atoms: _652  and  _653
REMARK  266  A    between atoms: _656  and  _658
REMARK  267  A    between atoms: _658  and  _659
REMARK  268  A    between atoms: _658  and  _661
REMARK  269  A    between atoms: _661  and  _662
REMARK  270  A    between atoms: _662  and  _663
REMARK  271  A    between atoms: _666  and  _668
REMARK  272  A    between atoms: _668  and  _669
REMARK  273  A    between atoms: _668  and  _671
REMARK  274  A    between atoms: _671  and  _672
REMARK  275  A    between atoms: _672  and  _673
REMARK  276  A    between atoms: _673  and  _674
REMARK  277  A    between atoms: _683  and  _685
REMARK  278  A    between atoms: _685  and  _686
REMARK  279  A    between atoms: _685  and  _688
REMARK  280  A    between atoms: _688  and  _689
REMARK  281  A    between atoms: _692  and  _694
REMARK  282  A    between atoms: _694  and  _695
REMARK  283  A    between atoms: _694  and  _697
REMARK  284  A    between atoms: _697  and  _698
REMARK  285  A    between atoms: _698  and  _699
REMARK  286  A    between atoms: _699  and  _700
REMARK  287  A    between atoms: _709  and  _711
REMARK  288  A    between atoms: _711  and  _712
REMARK  289  A    between atoms: _715  and  _717
REMARK  290  A    between atoms: _717  and  _718
REMARK  291  A    between atoms: _717  and  _720
REMARK  292  A    between atoms: _720  and  _721
REMARK  293  A    between atoms: _726  and  _727
REMARK  294  A    between atoms: _729  and  _731
REMARK  295  A    between atoms: _731  and  _732
REMARK  296  A    between atoms: _731  and  _734
REMARK  297  A    between atoms: _734  and  _735
REMARK  298  A    between atoms: _738  and  _740
REMARK  299  A    between atoms: _740  and  _741
REMARK  300  A    between atoms: _740  and  _743
REMARK  301  A    between atoms: _743  and  _744
REMARK  302  A    between atoms: _747  and  _749
REMARK  303  A    between atoms: _749  and  _750
REMARK  304  A    between atoms: _749  and  _752
REMARK  305  A    between atoms: _752  and  _753
REMARK  306  A    between atoms: _754  and  _756
REMARK  307  A    between atoms: _756  and  _757
REMARK  308  A    between atoms: _756  and  _759
REMARK  309  A    between atoms: _762  and  _764
REMARK  310  A    between atoms: _764  and  _765
REMARK  311  A    between atoms: _764  and  _767
REMARK  312  A    between atoms: _767  and  _768
REMARK  313  A    between atoms: _768  and  _769
REMARK  314  A    between atoms: _772  and  _774
REMARK  315  A    between atoms: _774  and  _775
REMARK  316  A    between atoms: _774  and  _777
REMARK  317  A    between atoms: _777  and  _778
REMARK  318  A    between atoms: _788  and  _790
REMARK  319  A    between atoms: _790  and  _791
REMARK  320  A    between atoms: _790  and  _793
REMARK  321  A    between atoms: _793  and  _794
REMARK  322  A    between atoms: _797  and  _799
REMARK  323  A    between atoms: _799  and  _800
REMARK  324  A    between atoms: _799  and  _802
REMARK  325  A    between atoms: _802  and  _803
REMARK  326  A    between atoms: _808  and  _809
REMARK                            x       y       z     vdW  Elec       q    Type
REMARK                         _______ _______ _______ _____ _____    ______ ____
ROOT
ATOM      1  O   HOH     1      -6.721  16.227  -5.761  0.00  0.00    +0.000 OA
ENDROOT
TORSDOF 0
REMARK  Name = ../refined-set-2016/3p9m/3p9m_pocket.pdb
REMARK  326 active torsions:
REMARK  status: ('A' for Active; 'I' for Inactive)
REMARK    1  A    between atoms: _1  and  _3
REMARK    2  A    between atoms: _3  and  _4
REMARK    3  A    between atoms: _3  and  _6
REMARK    4  A    between atoms: _6  and  _7
REMARK    5  A    between atoms: _10  and  _12
REMARK    6  A    between atoms: _12  and  _13
REMARK    7  A    between atoms: _12  and  _15
REMARK    8  A    between atoms: _15  and  _16
REMARK    9  A    between atoms: _16  and  _17
REMARK   10  A    between atoms: _17  and  _18
REMARK   11  A    between atoms: _27  and  _29
REMARK   12  A    between atoms: _29  and  _30
REMARK   13  A    between atoms: _29  and  _32
REMARK   14  A    between atoms: _32  and  _33
REMARK   15  A    between atoms: _38  and  _39
REMARK   16  A    between atoms: _41  and  _43
REMARK   17  A    between atoms: _43  and  _44
REMARK   18  A    between atoms: _43  and  _46
REMARK   19  A    between atoms: _46  and  _47
REMARK   20  A    between atoms: _53  and  _55
REMARK   21  A    between atoms: _55  and  _56
REMARK   22  A    between atoms: _55  and  _58
REMARK   23  A    between atoms: _61  and  _63
REMARK   24  A    between atoms: _63  and  _64
REMARK   25  A    between atoms: _63  and  _66
REMARK   26  A    between atoms: _66  and  _67
REMARK   27  A    between atoms: _70  and  _72
REMARK   28  A    between atoms: _72  and  _73
REMARK   29  A    between atoms: _72  and  _75
REMARK   30  A    between atoms: _75  and  _76
REMARK   31  A    between atoms: _81  and  _82
REMARK   32  A    between atoms: _84  and  _86
REMARK   33  A    between atoms: _86  and  _87
REMARK   34  A    between atoms: _86  and  _89
REMARK   35  A    between atoms: _89  and  _90
REMARK   36  A    between atoms: _90  and  _91
REMARK   37  A    between atoms: _93  and  _95
REMARK   38  A    between atoms: _95  and  _96
REMARK   39  A    between atoms: _95  and  _98
REMARK   40  A    between atoms: _98  and  _99
REMARK   41  A    between atoms: _99  and  _100
REMARK   42  A    between atoms: _103  and  _105
REMARK   43  A    between atoms: _105  and  _106
REMARK   44  A    between atoms: _105  and  _108
REMARK   45  A    between atoms: _111  and  _113
REMARK   46  A    between atoms: _113  and  _114
REMARK   47  A    between atoms: _116  and  _118
REMARK   48  A    between atoms: _118  and  _119
REMARK   49  A    between atoms: _118  and  _121
REMARK   50  A    between atoms: _121  and  _122
REMARK   51  A    between atoms: _128  and  _130
REMARK   52  A    between atoms: _130  and  _131
REMARK   53  A    between atoms: _130  and  _133
REMARK   54  A    between atoms: _136  and  _138
REMARK   55  A    between atoms: _138  and  _139
REMARK   56  A    between atoms: _138  and  _141
REMARK   57  A    between atoms: _141  and  _142
REMARK   58  A    between atoms: _148  and  _150
REMARK   59  A    between atoms: _150  and  _151
REMARK   60  A    between atoms: _150  and  _153
REMARK   61  A    between atoms: _153  and  _154
REMARK   62  A    between atoms: _159  and  _160
REMARK   63  A    between atoms: _162  and  _164
REMARK   64  A    between atoms: _164  and  _165
REMARK   65  A    between atoms: _164  and  _167
REMARK   66  A    between atoms: _167  and  _168
REMARK   67  A    between atoms: _168  and  _169
REMARK   68  A    between atoms: _171  and  _173
REMARK   69  A    between atoms: _173  and  _174
REMARK   70  A    between atoms: _173  and  _176
REMARK   71  A    between atoms: _176  and  _177
REMARK   72  A    between atoms: _182  and  _183
REMARK   73  A    between atoms: _185  and  _187
REMARK   74  A    between atoms: _187  and  _188
REMARK   75  A    between atoms: _187  and  _190
REMARK   76  A    between atoms: _190  and  _191
REMARK   77  A    between atoms: _191  and  _192
REMARK   78  A    between atoms: _192  and  _193
REMARK   79  A    between atoms: _202  and  _204
REMARK   80  A    between atoms: _204  and  _205
REMARK   81  A    between atoms: _204  and  _207
REMARK   82  A    between atoms: _207  and  _208
REMARK   83  A    between atoms: _208  and  _209
REMARK   84  A    between atoms: _212  and  _214
REMARK   85  A    between atoms: _214  and  _215
REMARK   86  A    between atoms: _214  and  _217
REMARK   87  A    between atoms: _217  and  _218
REMARK   88  A    between atoms: _218  and  _219
REMARK   89  A    between atoms: _219  and  _220
REMARK   90  A    between atoms: _220  and  _221
REMARK   91  A    between atoms: _225  and  _227
REMARK   92  A    between atoms: _227  and  _228
REMARK   93  A    between atoms: _231  and  _233
REMARK   94  A    between atoms: _233  and  _234
REMARK   95  A    between atoms: _236  and  _238
REMARK   96  A    between atoms: _238  and  _239
REMARK   97  A    between atoms: _238  and  _241
REMARK   98  A    between atoms: _241  and  _242
REMARK   99  A    between atoms: _247  and  _249
REMARK  100  A    between atoms: _249  and  _250
REMARK  101  A    between atoms: _249  and  _252
REMARK  102  A    between atoms: _252  and  _253
REMARK  103  A    between atoms: _253  and  _254
REMARK  104  A    between atoms: _257  and  _259
REMARK  105  A    between atoms: _259  and  _260
REMARK  106  A    between atoms: _259  and  _262
REMARK  107  A    between atoms: _262  and  _263
REMARK  108  A    between atoms: _263  and  _264
REMARK  109  A    between atoms: _269  and  _271
REMARK  110  A    between atoms: _271  and  _272
REMARK  111  A    between atoms: _271  and  _274
REMARK  112  A    between atoms: _274  and  _275
REMARK  113  A    between atoms: _277  and  _279
REMARK  114  A    between atoms: _279  and  _280
REMARK  115  A    between atoms: _279  and  _282
REMARK  116  A    between atoms: _282  and  _283
REMARK  117  A    between atoms: _289  and  _291
REMARK  118  A    between atoms: _291  and  _292
REMARK  119  A    between atoms: _291  and  _294
REMARK  120  A    between atoms: _294  and  _295
REMARK  121  A    between atoms: _295  and  _296
REMARK  122  A    between atoms: _296  and  _297
REMARK  123  A    between atoms: _306  and  _308
REMARK  124  A    between atoms: _308  and  _309
REMARK  125  A    between atoms: _308  and  _311
REMARK  126  A    between atoms: _314  and  _316
REMARK  127  A    between atoms: _316  and  _317
REMARK  128  A    between atoms: _316  and  _319
REMARK  129  A    between atoms: _319  and  _320
REMARK  130  A    between atoms: _323  and  _325
REMARK  131  A    between atoms: _325  and  _326
REMARK  132  A    between atoms: _325  and  _328
REMARK  133  A    between atoms: _328  and  _329
REMARK  134  A    between atoms: _332  and  _334
REMARK  135  A    between atoms: _334  and  _335
REMARK  136  A    between atoms: _334  and  _337
REMARK  137  A    between atoms: _337  and  _338
REMARK  138  A    between atoms: _338  and  _339
REMARK  139  A    between atoms: _339  and  _340
REMARK  140  A    between atoms: _349  and  _351
REMARK  141  A    between atoms: _351  and  _352
REMARK  142  A    between atoms: _351  and  _354
REMARK  143  A    between atoms: _354  and  _355
REMARK  144  A    between atoms: _358  and  _360
REMARK  145  A    between atoms: _360  and  _361
REMARK  146  A    between atoms: _360  and  _363
REMARK  147  A    between atoms: _363  and  _364
REMARK  148  A    between atoms: _367  and  _369
REMARK  149  A    between atoms: _369  and  _370
REMARK  150  A    between atoms: _369  and  _372
REMARK  151  A    between atoms: _372  and  _373
REMARK  152  A    between atoms: _378  and  _379
REMARK  153  A    between atoms: _381  and  _383
REMARK  154  A    between atoms: _383  and  _384
REMARK  155  A    between atoms: _383  and  _386
REMARK  156  A    between atoms: _386  and  _387
REMARK  157  A    between atoms: _392  and  _393
REMARK  158  A    between atoms: _395  and  _397
REMARK  159  A    between atoms: _397  and  _398
REMARK  160  A    between atoms: _397  and  _400
REMARK  161  A    between atoms: _400  and  _401
REMARK  162  A    between atoms: _404  and  _406
REMARK  163  A    between atoms: _406  and  _407
REMARK  164  A    between atoms: _406  and  _409
REMARK  165  A    between atoms: _409  and  _410
REMARK  166  A    between atoms: _410  and  _411
REMARK  167  A    between atoms: _416  and  _418
REMARK  168  A    between atoms: _418  and  _419
REMARK  169  A    between atoms: _418  and  _421
REMARK  170  A    between atoms: _424  and  _426
REMARK  171  A    between atoms: _426  and  _427
REMARK  172  A    between atoms: _426  and  _429
REMARK  173  A    between atoms: _429  and  _430
REMARK  174  A    between atoms: _433  and  _435
REMARK  175  A    between atoms: _435  and  _436
REMARK  176  A    between atoms: _435  and  _438
REMARK  177  A    between atoms: _438  and  _439
REMARK  178  A    between atoms: _441  and  _443
REMARK  179  A    between atoms: _443  and  _444
REMARK  180  A    between atoms: _446  and  _448
REMARK  181  A    between atoms: _448  and  _449
REMARK  182  A    between atoms: _448  and  _451
REMARK  183  A    between atoms: _451  and  _452
REMARK  184  A    between atoms: _452  and  _753
REMARK  185  A    between atoms: _453  and  _455
REMARK  186  A    between atoms: _455  and  _456
REMARK  187  A    between atoms: _455  and  _458
REMARK  188  A    between atoms: _458  and  _459
REMARK  189  A    between atoms: _464  and  _465
REMARK  190  A    between atoms: _467  and  _469
REMARK  191  A    between atoms: _469  and  _470
REMARK  192  A    between atoms: _469  and  _472
REMARK  193  A    between atoms: _472  and  _473
REMARK  194  A    between atoms: _473  and  _474
REMARK  195  A    between atoms: _479  and  _481
REMARK  196  A    between atoms: _481  and  _482
REMARK  197  A    between atoms: _481  and  _484
REMARK  198  A    between atoms: _484  and  _485
REMARK  199  A    between atoms: _485  and  _486
REMARK  200  A    between atoms: _491  and  _493
REMARK  201  A    between atoms: _493  and  _494
REMARK  202  A    between atoms: _493  and  _496
REMARK  203  A    between atoms: _496  and  _497
REMARK  204  A    between atoms: _502  and  _503
REMARK  205  A    between atoms: _505  and  _507
REMARK  206  A    between atoms: _507  and  _508
REMARK  207  A    between atoms: _511  and  _513
REMARK  208  A    between atoms: _513  and  _514
REMARK  209  A    between atoms: _513  and  _516
REMARK  210  A    between atoms: _516  and  _517
REMARK  211  A    between atoms: _522  and  _523
REMARK  212  A    between atoms: _525  and  _527
REMARK  213  A    between atoms: _527  and  _528
REMARK  214  A    between atoms: _527  and  _530
REMARK  215  A    between atoms: _530  and  _531
REMARK  216  A    between atoms: _536  and  _537
REMARK  217  A    between atoms: _539  and  _541
REMARK  218  A    between atoms: _541  and  _542
REMARK  219  A    between atoms: _541  and  _544
REMARK  220  A    between atoms: _544  and  _545
REMARK  221  A    between atoms: _548  and  _550
REMARK  222  A    between atoms: _550  and  _551
REMARK  223  A    between atoms: _554  and  _556
REMARK  224  A    between atoms: _556  and  _557
REMARK  225  A    between atoms: _560  and  _562
REMARK  226  A    between atoms: _562  and  _563
REMARK  227  A    between atoms: _562  and  _565
REMARK  228  A    between atoms: _565  and  _566
REMARK  229  A    between atoms: _569  and  _571
REMARK  230  A    between atoms: _571  and  _572
REMARK  231  A    between atoms: _571  and  _574
REMARK  232  A    between atoms: _574  and  _575
REMARK  233  A    between atoms: _578  and  _580
REMARK  234  A    between atoms: _580  and  _581
REMARK  235  A    between atoms: _580  and  _583
REMARK  236  A    between atoms: _583  and  _584
REMARK  237  A    between atoms: _587  and  _589
REMARK  238  A    between atoms: _589  and  _590
REMARK  239  A    between atoms: _589  and  _592
REMARK  240  A    between atoms: _592  and  _593
REMARK  241  A    between atoms: _593  and  _594
REMARK  242  A    between atoms: _594  and  _595
REMARK  243  A    between atoms: _595  and  _596
REMARK  244  A    between atoms: _600  and  _602
REMARK  245  A    between atoms: _602  and  _603
REMARK  246  A    between atoms: _602  and  _605
REMARK  247  A    between atoms: _605  and  _606
REMARK  248  A    between atoms: _611  and  _613
REMARK  249  A    between atoms: _613  and  _614
REMARK  250  A    between atoms: _613  and  _616
REMARK  251  A    between atoms: _616  and  _617
REMARK  252  A    between atoms: _617  and  _618
REMARK  253  A    between atoms: _618  and  _619
REMARK  254  A    between atoms: _619  and  _620
REMARK  255  A    between atoms: _624  and  _626
REMARK  256  A    between atoms: _626  and  _627
REMARK  257  A    between atoms: _626  and  _629
REMARK  258  A    between atoms: _629  and  _630
REMARK  259  A    between atoms: _640  and  _642
REMARK  260  A    between atoms: _642  and  _643
REMARK  261  A    between atoms: _646  and  _648
REMARK  262  A    between atoms: _648  and  _649
REMARK  263  A    between atoms: _648  and  _651
REMARK  264  A    between atoms: _651  and  _652
REMARK  265  A    between atoms: _652  and  _653
REMARK  266  A    between atoms: _656  and  _658
REMARK  267  A    between atoms: _658  and  _659
REMARK  268  A    between atoms: _658  and  _661
REMARK  269  A    between atoms: _661  and  _662
REMARK  270  A    between atoms: _662  and  _663
REMARK  271  A    between atoms: _666  and  _668
REMARK  272  A    between atoms: _668  and  _669
REMARK  273  A    between atoms: _668  and  _671
REMARK  274  A    between atoms: _671  and  _672
REMARK  275  A    between atoms: _672  and  _673
REMARK  276  A    between atoms: _673  and  _674
REMARK  277  A    between atoms: _683  and  _685
REMARK  278  A    between atoms: _685  and  _686
REMARK  279  A    between atoms: _685  and  _688
REMARK  280  A    between atoms: _688  and  _689
REMARK  281  A    between atoms: _692  and  _694
REMARK  282  A    between atoms: _694  and  _695
REMARK  283  A    between atoms: _694  and  _697
REMARK  284  A    between atoms: _697  and  _698
REMARK  285  A    between atoms: _698  and  _699
REMARK  286  A    between atoms: _699  and  _700
REMARK  287  A    between atoms: _709  and  _711
REMARK  288  A    between atoms: _711  and  _712
REMARK  289  A    between atoms: _715  and  _717
REMARK  290  A    between atoms: _717  and  _718
REMARK  291  A    between atoms: _717  and  _720
REMARK  292  A    between atoms: _720  and  _721
REMARK  293  A    between atoms: _726  and  _727
REMARK  294  A    between atoms: _729  and  _731
REMARK  295  A    between atoms: _731  and  _732
REMARK  296  A    between atoms: _731  and  _734
REMARK  297  A    between atoms: _734  and  _735
REMARK  298  A    between atoms: _738  and  _740
REMARK  299  A    between atoms: _740  and  _741
REMARK  300  A    between atoms: _740  and  _743
REMARK  301  A    between atoms: _743  and  _744
REMARK  302  A    between atoms: _747  and  _749
REMARK  303  A    between atoms: _749  and  _750
REMARK  304  A    between atoms: _749  and  _752
REMARK  305  A    between atoms: _752  and  _753
REMARK  306  A    between atoms: _754  and  _756
REMARK  307  A    between atoms: _756  and  _757
REMARK  308  A    between atoms: _756  and  _759
REMARK  309  A    between atoms: _762  and  _764
REMARK  310  A    between atoms: _764  and  _765
REMARK  311  A    between atoms: _764  and  _767
REMARK  312  A    between atoms: _767  and  _768
REMARK  313  A    between atoms: _768  and  _769
REMARK  314  A    between atoms: _772  and  _774
REMARK  315  A    between atoms: _774  and  _775
REMARK  316  A    between atoms: _774  and  _777
REMARK  317  A    between atoms: _777  and  _778
REMARK  318  A    between atoms: _788  and  _790
REMARK  319  A    between atoms: _790  and  _791
REMARK  320  A    between atoms: _790  and  _793
REMARK  321  A    between atoms: _793  and  _794
REMARK  322  A    between atoms: _797  and  _799
REMARK  323  A    between atoms: _799  and  _800
REMARK  324  A    between atoms: _799  and  _802
REMARK  325  A    between atoms: _802  and  _803
REMARK  326  A    between atoms: _808  and  _809
REMARK                            x       y       z     vdW  Elec       q    Type
REMARK                         _______ _______ _______ _____ _____    ______ ____
ROOT
ATOM      1  O   HOH     1     -11.722  15.688 -11.329  0.00  0.00    +0.000 OA
ENDROOT
TORSDOF 0
REMARK  Name = ../refined-set-2016/3p9m/3p9m_pocket.pdb
REMARK  326 active torsions:
REMARK  status: ('A' for Active; 'I' for Inactive)
REMARK    1  A    between atoms: _1  and  _3
REMARK    2  A    between atoms: _3  and  _4
REMARK    3  A    between atoms: _3  and  _6
REMARK    4  A    between atoms: _6  and  _7
REMARK    5  A    between atoms: _10  and  _12
REMARK    6  A    between atoms: _12  and  _13
REMARK    7  A    between atoms: _12  and  _15
REMARK    8  A    between atoms: _15  and  _16
REMARK    9  A    between atoms: _16  and  _17
REMARK   10  A    between atoms: _17  and  _18
REMARK   11  A    between atoms: _27  and  _29
REMARK   12  A    between atoms: _29  and  _30
REMARK   13  A    between atoms: _29  and  _32
REMARK   14  A    between atoms: _32  and  _33
REMARK   15  A    between atoms: _38  and  _39
REMARK   16  A    between atoms: _41  and  _43
REMARK   17  A    between atoms: _43  and  _44
REMARK   18  A    between atoms: _43  and  _46
REMARK   19  A    between atoms: _46  and  _47
REMARK   20  A    between atoms: _53  and  _55
REMARK   21  A    between atoms: _55  and  _56
REMARK   22  A    between atoms: _55  and  _58
REMARK   23  A    between atoms: _61  and  _63
REMARK   24  A    between atoms: _63  and  _64
REMARK   25  A    between atoms: _63  and  _66
REMARK   26  A    between atoms: _66  and  _67
REMARK   27  A    between atoms: _70  and  _72
REMARK   28  A    between atoms: _72  and  _73
REMARK   29  A    between atoms: _72  and  _75
REMARK   30  A    between atoms: _75  and  _76
REMARK   31  A    between atoms: _81  and  _82
REMARK   32  A    between atoms: _84  and  _86
REMARK   33  A    between atoms: _86  and  _87
REMARK   34  A    between atoms: _86  and  _89
REMARK   35  A    between atoms: _89  and  _90
REMARK   36  A    between atoms: _90  and  _91
REMARK   37  A    between atoms: _93  and  _95
REMARK   38  A    between atoms: _95  and  _96
REMARK   39  A    between atoms: _95  and  _98
REMARK   40  A    between atoms: _98  and  _99
REMARK   41  A    between atoms: _99  and  _100
REMARK   42  A    between atoms: _103  and  _105
REMARK   43  A    between atoms: _105  and  _106
REMARK   44  A    between atoms: _105  and  _108
REMARK   45  A    between atoms: _111  and  _113
REMARK   46  A    between atoms: _113  and  _114
REMARK   47  A    between atoms: _116  and  _118
REMARK   48  A    between atoms: _118  and  _119
REMARK   49  A    between atoms: _118  and  _121
REMARK   50  A    between atoms: _121  and  _122
REMARK   51  A    between atoms: _128  and  _130
REMARK   52  A    between atoms: _130  and  _131
REMARK   53  A    between atoms: _130  and  _133
REMARK   54  A    between atoms: _136  and  _138
REMARK   55  A    between atoms: _138  and  _139
REMARK   56  A    between atoms: _138  and  _141
REMARK   57  A    between atoms: _141  and  _142
REMARK   58  A    between atoms: _148  and  _150
REMARK   59  A    between atoms: _150  and  _151
REMARK   60  A    between atoms: _150  and  _153
REMARK   61  A    between atoms: _153  and  _154
REMARK   62  A    between atoms: _159  and  _160
REMARK   63  A    between atoms: _162  and  _164
REMARK   64  A    between atoms: _164  and  _165
REMARK   65  A    between atoms: _164  and  _167
REMARK   66  A    between atoms: _167  and  _168
REMARK   67  A    between atoms: _168  and  _169
REMARK   68  A    between atoms: _171  and  _173
REMARK   69  A    between atoms: _173  and  _174
REMARK   70  A    between atoms: _173  and  _176
REMARK   71  A    between atoms: _176  and  _177
REMARK   72  A    between atoms: _182  and  _183
REMARK   73  A    between atoms: _185  and  _187
REMARK   74  A    between atoms: _187  and  _188
REMARK   75  A    between atoms: _187  and  _190
REMARK   76  A    between atoms: _190  and  _191
REMARK   77  A    between atoms: _191  and  _192
REMARK   78  A    between atoms: _192  and  _193
REMARK   79  A    between atoms: _202  and  _204
REMARK   80  A    between atoms: _204  and  _205
REMARK   81  A    between atoms: _204  and  _207
REMARK   82  A    between atoms: _207  and  _208
REMARK   83  A    between atoms: _208  and  _209
REMARK   84  A    between atoms: _212  and  _214
REMARK   85  A    between atoms: _214  and  _215
REMARK   86  A    between atoms: _214  and  _217
REMARK   87  A    between atoms: _217  and  _218
REMARK   88  A    between atoms: _218  and  _219
REMARK   89  A    between atoms: _219  and  _220
REMARK   90  A    between atoms: _220  and  _221
REMARK   91  A    between atoms: _225  and  _227
REMARK   92  A    between atoms: _227  and  _228
REMARK   93  A    between atoms: _231  and  _233
REMARK   94  A    between atoms: _233  and  _234
REMARK   95  A    between atoms: _236  and  _238
REMARK   96  A    between atoms: _238  and  _239
REMARK   97  A    between atoms: _238  and  _241
REMARK   98  A    between atoms: _241  and  _242
REMARK   99  A    between atoms: _247  and  _249
REMARK  100  A    between atoms: _249  and  _250
REMARK  101  A    between atoms: _249  and  _252
REMARK  102  A    between atoms: _252  and  _253
REMARK  103  A    between atoms: _253  and  _254
REMARK  104  A    between atoms: _257  and  _259
REMARK  105  A    between atoms: _259  and  _260
REMARK  106  A    between atoms: _259  and  _262
REMARK  107  A    between atoms: _262  and  _263
REMARK  108  A    between atoms: _263  and  _264
REMARK  109  A    between atoms: _269  and  _271
REMARK  110  A    between atoms: _271  and  _272
REMARK  111  A    between atoms: _271  and  _274
REMARK  112  A    between atoms: _274  and  _275
REMARK  113  A    between atoms: _277  and  _279
REMARK  114  A    between atoms: _279  and  _280
REMARK  115  A    between atoms: _279  and  _282
REMARK  116  A    between atoms: _282  and  _283
REMARK  117  A    between atoms: _289  and  _291
REMARK  118  A    between atoms: _291  and  _292
REMARK  119  A    between atoms: _291  and  _294
REMARK  120  A    between atoms: _294  and  _295
REMARK  121  A    between atoms: _295  and  _296
REMARK  122  A    between atoms: _296  and  _297
REMARK  123  A    between atoms: _306  and  _308
REMARK  124  A    between atoms: _308  and  _309
REMARK  125  A    between atoms: _308  and  _311
REMARK  126  A    between atoms: _314  and  _316
REMARK  127  A    between atoms: _316  and  _317
REMARK  128  A    between atoms: _316  and  _319
REMARK  129  A    between atoms: _319  and  _320
REMARK  130  A    between atoms: _323  and  _325
REMARK  131  A    between atoms: _325  and  _326
REMARK  132  A    between atoms: _325  and  _328
REMARK  133  A    between atoms: _328  and  _329
REMARK  134  A    between atoms: _332  and  _334
REMARK  135  A    between atoms: _334  and  _335
REMARK  136  A    between atoms: _334  and  _337
REMARK  137  A    between atoms: _337  and  _338
REMARK  138  A    between atoms: _338  and  _339
REMARK  139  A    between atoms: _339  and  _340
REMARK  140  A    between atoms: _349  and  _351
REMARK  141  A    between atoms: _351  and  _352
REMARK  142  A    between atoms: _351  and  _354
REMARK  143  A    between atoms: _354  and  _355
REMARK  144  A    between atoms: _358  and  _360
REMARK  145  A    between atoms: _360  and  _361
REMARK  146  A    between atoms: _360  and  _363
REMARK  147  A    between atoms: _363  and  _364
REMARK  148  A    between atoms: _367  and  _369
REMARK  149  A    between atoms: _369  and  _370
REMARK  150  A    between atoms: _369  and  _372
REMARK  151  A    between atoms: _372  and  _373
REMARK  152  A    between atoms: _378  and  _379
REMARK  153  A    between atoms: _381  and  _383
REMARK  154  A    between atoms: _383  and  _384
REMARK  155  A    between atoms: _383  and  _386
REMARK  156  A    between atoms: _386  and  _387
REMARK  157  A    between atoms: _392  and  _393
REMARK  158  A    between atoms: _395  and  _397
REMARK  159  A    between atoms: _397  and  _398
REMARK  160  A    between atoms: _397  and  _400
REMARK  161  A    between atoms: _400  and  _401
REMARK  162  A    between atoms: _404  and  _406
REMARK  163  A    between atoms: _406  and  _407
REMARK  164  A    between atoms: _406  and  _409
REMARK  165  A    between atoms: _409  and  _410
REMARK  166  A    between atoms: _410  and  _411
REMARK  167  A    between atoms: _416  and  _418
REMARK  168  A    between atoms: _418  and  _419
REMARK  169  A    between atoms: _418  and  _421
REMARK  170  A    between atoms: _424  and  _426
REMARK  171  A    between atoms: _426  and  _427
REMARK  172  A    between atoms: _426  and  _429
REMARK  173  A    between atoms: _429  and  _430
REMARK  174  A    between atoms: _433  and  _435
REMARK  175  A    between atoms: _435  and  _436
REMARK  176  A    between atoms: _435  and  _438
REMARK  177  A    between atoms: _438  and  _439
REMARK  178  A    between atoms: _441  and  _443
REMARK  179  A    between atoms: _443  and  _444
REMARK  180  A    between atoms: _446  and  _448
REMARK  181  A    between atoms: _448  and  _449
REMARK  182  A    between atoms: _448  and  _451
REMARK  183  A    between atoms: _451  and  _452
REMARK  184  A    between atoms: _452  and  _753
REMARK  185  A    between atoms: _453  and  _455
REMARK  186  A    between atoms: _455  and  _456
REMARK  187  A    between atoms: _455  and  _458
REMARK  188  A    between atoms: _458  and  _459
REMARK  189  A    between atoms: _464  and  _465
REMARK  190  A    between atoms: _467  and  _469
REMARK  191  A    between atoms: _469  and  _470
REMARK  192  A    between atoms: _469  and  _472
REMARK  193  A    between atoms: _472  and  _473
REMARK  194  A    between atoms: _473  and  _474
REMARK  195  A    between atoms: _479  and  _481
REMARK  196  A    between atoms: _481  and  _482
REMARK  197  A    between atoms: _481  and  _484
REMARK  198  A    between atoms: _484  and  _485
REMARK  199  A    between atoms: _485  and  _486
REMARK  200  A    between atoms: _491  and  _493
REMARK  201  A    between atoms: _493  and  _494
REMARK  202  A    between atoms: _493  and  _496
REMARK  203  A    between atoms: _496  and  _497
REMARK  204  A    between atoms: _502  and  _503
REMARK  205  A    between atoms: _505  and  _507
REMARK  206  A    between atoms: _507  and  _508
REMARK  207  A    between atoms: _511  and  _513
REMARK  208  A    between atoms: _513  and  _514
REMARK  209  A    between atoms: _513  and  _516
REMARK  210  A    between atoms: _516  and  _517
REMARK  211  A    between atoms: _522  and  _523
REMARK  212  A    between atoms: _525  and  _527
REMARK  213  A    between atoms: _527  and  _528
REMARK  214  A    between atoms: _527  and  _530
REMARK  215  A    between atoms: _530  and  _531
REMARK  216  A    between atoms: _536  and  _537
REMARK  217  A    between atoms: _539  and  _541
REMARK  218  A    between atoms: _541  and  _542
REMARK  219  A    between atoms: _541  and  _544
REMARK  220  A    between atoms: _544  and  _545
REMARK  221  A    between atoms: _548  and  _550
REMARK  222  A    between atoms: _550  and  _551
REMARK  223  A    between atoms: _554  and  _556
REMARK  224  A    between atoms: _556  and  _557
REMARK  225  A    between atoms: _560  and  _562
REMARK  226  A    between atoms: _562  and  _563
REMARK  227  A    between atoms: _562  and  _565
REMARK  228  A    between atoms: _565  and  _566
REMARK  229  A    between atoms: _569  and  _571
REMARK  230  A    between atoms: _571  and  _572
REMARK  231  A    between atoms: _571  and  _574
REMARK  232  A    between atoms: _574  and  _575
REMARK  233  A    between atoms: _578  and  _580
REMARK  234  A    between atoms: _580  and  _581
REMARK  235  A    between atoms: _580  and  _583
REMARK  236  A    between atoms: _583  and  _584
REMARK  237  A    between atoms: _587  and  _589
REMARK  238  A    between atoms: _589  and  _590
REMARK  239  A    between atoms: _589  and  _592
REMARK  240  A    between atoms: _592  and  _593
REMARK  241  A    between atoms: _593  and  _594
REMARK  242  A    between atoms: _594  and  _595
REMARK  243  A    between atoms: _595  and  _596
REMARK  244  A    between atoms: _600  and  _602
REMARK  245  A    between atoms: _602  and  _603
REMARK  246  A    between atoms: _602  and  _605
REMARK  247  A    between atoms: _605  and  _606
REMARK  248  A    between atoms: _611  and  _613
REMARK  249  A    between atoms: _613  and  _614
REMARK  250  A    between atoms: _613  and  _616
REMARK  251  A    between atoms: _616  and  _617
REMARK  252  A    between atoms: _617  and  _618
REMARK  253  A    between atoms: _618  and  _619
REMARK  254  A    between atoms: _619  and  _620
REMARK  255  A    between atoms: _624  and  _626
REMARK  256  A    between atoms: _626  and  _627
REMARK  257  A    between atoms: _626  and  _629
REMARK  258  A    between atoms: _629  and  _630
REMARK  259  A    between atoms: _640  and  _642
REMARK  260  A    between atoms: _642  and  _643
REMARK  261  A    between atoms: _646  and  _648
REMARK  262  A    between atoms: _648  and  _649
REMARK  263  A    between atoms: _648  and  _651
REMARK  264  A    between atoms: _651  and  _652
REMARK  265  A    between atoms: _652  and  _653
REMARK  266  A    between atoms: _656  and  _658
REMARK  267  A    between atoms: _658  and  _659
REMARK  268  A    between atoms: _658  and  _661
REMARK  269  A    between atoms: _661  and  _662
REMARK  270  A    between atoms: _662  and  _663
REMARK  271  A    between atoms: _666  and  _668
REMARK  272  A    between atoms: _668  and  _669
REMARK  273  A    between atoms: _668  and  _671
REMARK  274  A    between atoms: _671  and  _672
REMARK  275  A    between atoms: _672  and  _673
REMARK  276  A    between atoms: _673  and  _674
REMARK  277  A    between atoms: _683  and  _685
REMARK  278  A    between atoms: _685  and  _686
REMARK  279  A    between atoms: _685  and  _688
REMARK  280  A    between atoms: _688  and  _689
REMARK  281  A    between atoms: _692  and  _694
REMARK  282  A    between atoms: _694  and  _695
REMARK  283  A    between atoms: _694  and  _697
REMARK  284  A    between atoms: _697  and  _698
REMARK  285  A    between atoms: _698  and  _699
REMARK  286  A    between atoms: _699  and  _700
REMARK  287  A    between atoms: _709  and  _711
REMARK  288  A    between atoms: _711  and  _712
REMARK  289  A    between atoms: _715  and  _717
REMARK  290  A    between atoms: _717  and  _718
REMARK  291  A    between atoms: _717  and  _720
REMARK  292  A    between atoms: _720  and  _721
REMARK  293  A    between atoms: _726  and  _727
REMARK  294  A    between atoms: _729  and  _731
REMARK  295  A    between atoms: _731  and  _732
REMARK  296  A    between atoms: _731  and  _734
REMARK  297  A    between atoms: _734  and  _735
REMARK  298  A    between atoms: _738  and  _740
REMARK  299  A    between atoms: _740  and  _741
REMARK  300  A    between atoms: _740  and  _743
REMARK  301  A    between atoms: _743  and  _744
REMARK  302  A    between atoms: _747  and  _749
REMARK  303  A    between atoms: _749  and  _750
REMARK  304  A    between atoms: _749  and  _752
REMARK  305  A    between atoms: _752  and  _753
REMARK  306  A    between atoms: _754  and  _756
REMARK  307  A    between atoms: _756  and  _757
REMARK  308  A    between atoms: _756  and  _759
REMARK  309  A    between atoms: _762  and  _764
REMARK  310  A    between atoms: _764  and  _765
REMARK  311  A    between atoms: _764  and  _767
REMARK  312  A    between atoms: _767  and  _768
REMARK  313  A    between atoms: _768  and  _769
REMARK  314  A    between atoms: _772  and  _774
REMARK  315  A    between atoms: _774  and  _775
REMARK  316  A    between atoms: _774  and  _777
REMARK  317  A    between atoms: _777  and  _778
REMARK  318  A    between atoms: _788  and  _790
REMARK  319  A    between atoms: _790  and  _791
REMARK  320  A    between atoms: _790  and  _793
REMARK  321  A    between atoms: _793  and  _794
REMARK  322  A    between atoms: _797  and  _799
REMARK  323  A    between atoms: _799  and  _800
REMARK  324  A    between atoms: _799  and  _802
REMARK  325  A    between atoms: _802  and  _803
REMARK  326  A    between atoms: _808  and  _809
REMARK                            x       y       z     vdW  Elec       q    Type
REMARK                         _______ _______ _______ _____ _____    ______ ____
ROOT
ATOM      1  O   HOH     1      -3.018   2.156  -0.852  0.00  0.00    +0.000 OA
ENDROOT
TORSDOF 0
