REMARK  Name = ../refined-set-2016/3mxe/3mxe_pocket.pdb
REMARK  229 active torsions:
REMARK  status: ('A' for Active; 'I' for Inactive)
REMARK    1  A    between atoms: _1  and  _3
REMARK    2  A    between atoms: _3  and  _4
REMARK    3  A    between atoms: _3  and  _6
REMARK    4  A    between atoms: _6  and  _7
REMARK    5  A    between atoms: _7  and  _8
REMARK    6  A    between atoms: _8  and  _9
REMARK    7  A    between atoms: _18  and  _20
REMARK    8  A    between atoms: _20  and  _21
REMARK    9  A    between atoms: _20  and  _23
REMARK   10  A    between atoms: _23  and  _24
REMARK   11  A    between atoms: _27  and  _29
REMARK   12  A    between atoms: _29  and  _30
REMARK   13  A    between atoms: _29  and  _32
REMARK   14  A    between atoms: _32  and  _33
REMARK   15  A    between atoms: _36  and  _38
REMARK   16  A    between atoms: _38  and  _39
REMARK   17  A    between atoms: _38  and  _41
REMARK   18  A    between atoms: _41  and  _42
REMARK   19  A    between atoms: _45  and  _47
REMARK   20  A    between atoms: _47  and  _48
REMARK   21  A    between atoms: _47  and  _50
REMARK   22  A    between atoms: _50  and  _51
REMARK   23  A    between atoms: _54  and  _56
REMARK   24  A    between atoms: _56  and  _57
REMARK   25  A    between atoms: _59  and  _61
REMARK   26  A    between atoms: _61  and  _62
REMARK   27  A    between atoms: _65  and  _67
REMARK   28  A    between atoms: _67  and  _68
REMARK   29  A    between atoms: _67  and  _70
REMARK   30  A    between atoms: _70  and  _71
REMARK   31  A    between atoms: _74  and  _76
REMARK   32  A    between atoms: _76  and  _77
REMARK   33  A    between atoms: _76  and  _79
REMARK   34  A    between atoms: _79  and  _80
REMARK   35  A    between atoms: _83  and  _85
REMARK   36  A    between atoms: _85  and  _86
REMARK   37  A    between atoms: _85  and  _88
REMARK   38  A    between atoms: _88  and  _89
REMARK   39  A    between atoms: _92  and  _94
REMARK   40  A    between atoms: _94  and  _95
REMARK   41  A    between atoms: _94  and  _97
REMARK   42  A    between atoms: _100  and  _102
REMARK   43  A    between atoms: _102  and  _103
REMARK   44  A    between atoms: _102  and  _105
REMARK   45  A    between atoms: _105  and  _106
REMARK   46  A    between atoms: _106  and  _107
REMARK   47  A    between atoms: _107  and  _108
REMARK   48  A    between atoms: _108  and  _109
REMARK   49  A    between atoms: _113  and  _115
REMARK   50  A    between atoms: _115  and  _116
REMARK   51  A    between atoms: _115  and  _118
REMARK   52  A    between atoms: _118  and  _119
REMARK   53  A    between atoms: _119  and  _120
REMARK   54  A    between atoms: _122  and  _124
REMARK   55  A    between atoms: _124  and  _125
REMARK   56  A    between atoms: _124  and  _127
REMARK   57  A    between atoms: _127  and  _128
REMARK   58  A    between atoms: _131  and  _133
REMARK   59  A    between atoms: _133  and  _134
REMARK   60  A    between atoms: _136  and  _138
REMARK   61  A    between atoms: _138  and  _139
REMARK   62  A    between atoms: _141  and  _143
REMARK   63  A    between atoms: _143  and  _144
REMARK   64  A    between atoms: _143  and  _146
REMARK   65  A    between atoms: _146  and  _147
REMARK   66  A    between atoms: _150  and  _152
REMARK   67  A    between atoms: _152  and  _153
REMARK   68  A    between atoms: _155  and  _157
REMARK   69  A    between atoms: _157  and  _158
REMARK   70  A    between atoms: _160  and  _162
REMARK   71  A    between atoms: _162  and  _163
REMARK   72  A    between atoms: _162  and  _165
REMARK   73  A    between atoms: _165  and  _166
REMARK   74  A    between atoms: _172  and  _174
REMARK   75  A    between atoms: _174  and  _175
REMARK   76  A    between atoms: _174  and  _177
REMARK   77  A    between atoms: _177  and  _178
REMARK   78  A    between atoms: _181  and  _183
REMARK   79  A    between atoms: _183  and  _184
REMARK   80  A    between atoms: _183  and  _186
REMARK   81  A    between atoms: _189  and  _191
REMARK   82  A    between atoms: _191  and  _192
REMARK   83  A    between atoms: _191  and  _194
REMARK   84  A    between atoms: _194  and  _195
REMARK   85  A    between atoms: _198  and  _200
REMARK   86  A    between atoms: _200  and  _201
REMARK   87  A    between atoms: _200  and  _203
REMARK   88  A    between atoms: _203  and  _204
REMARK   89  A    between atoms: _208  and  _209
REMARK   90  A    between atoms: _214  and  _216
REMARK   91  A    between atoms: _216  and  _217
REMARK   92  A    between atoms: _216  and  _219
REMARK   93  A    between atoms: _222  and  _224
REMARK   94  A    between atoms: _224  and  _225
REMARK   95  A    between atoms: _224  and  _227
REMARK   96  A    between atoms: _227  and  _228
REMARK   97  A    between atoms: _233  and  _235
REMARK   98  A    between atoms: _235  and  _236
REMARK   99  A    between atoms: _235  and  _238
REMARK  100  A    between atoms: _238  and  _239
REMARK  101  A    between atoms: _242  and  _244
REMARK  102  A    between atoms: _244  and  _245
REMARK  103  A    between atoms: _244  and  _247
REMARK  104  A    between atoms: _247  and  _248
REMARK  105  A    between atoms: _251  and  _253
REMARK  106  A    between atoms: _253  and  _254
REMARK  107  A    between atoms: _256  and  _258
REMARK  108  A    between atoms: _258  and  _259
REMARK  109  A    between atoms: _258  and  _261
REMARK  110  A    between atoms: _261  and  _262
REMARK  111  A    between atoms: _262  and  _263
REMARK  112  A    between atoms: _263  and  _264
REMARK  113  A    between atoms: _273  and  _275
REMARK  114  A    between atoms: _275  and  _276
REMARK  115  A    between atoms: _275  and  _278
REMARK  116  A    between atoms: _278  and  _279
REMARK  117  A    between atoms: _284  and  _286
REMARK  118  A    between atoms: _286  and  _287
REMARK  119  A    between atoms: _286  and  _289
REMARK  120  A    between atoms: _289  and  _290
REMARK  121  A    between atoms: _290  and  _291
REMARK  122  A    between atoms: _291  and  _292
REMARK  123  A    between atoms: _301  and  _303
REMARK  124  A    between atoms: _303  and  _304
REMARK  125  A    between atoms: _303  and  _306
REMARK  126  A    between atoms: _306  and  _307
REMARK  127  A    between atoms: _310  and  _312
REMARK  128  A    between atoms: _312  and  _313
REMARK  129  A    between atoms: _312  and  _315
REMARK  130  A    between atoms: _315  and  _316
REMARK  131  A    between atoms: _319  and  _321
REMARK  132  A    between atoms: _321  and  _322
REMARK  133  A    between atoms: _321  and  _324
REMARK  134  A    between atoms: _324  and  _325
REMARK  135  A    between atoms: _328  and  _330
REMARK  136  A    between atoms: _330  and  _331
REMARK  137  A    between atoms: _330  and  _333
REMARK  138  A    between atoms: _333  and  _334
REMARK  139  A    between atoms: _337  and  _339
REMARK  140  A    between atoms: _339  and  _340
REMARK  141  A    between atoms: _342  and  _344
REMARK  142  A    between atoms: _344  and  _345
REMARK  143  A    between atoms: _348  and  _350
REMARK  144  A    between atoms: _350  and  _351
REMARK  145  A    between atoms: _350  and  _353
REMARK  146  A    between atoms: _353  and  _354
REMARK  147  A    between atoms: _357  and  _359
REMARK  148  A    between atoms: _359  and  _360
REMARK  149  A    between atoms: _359  and  _362
REMARK  150  A    between atoms: _362  and  _363
REMARK  151  A    between atoms: _366  and  _368
REMARK  152  A    between atoms: _368  and  _369
REMARK  153  A    between atoms: _368  and  _371
REMARK  154  A    between atoms: _371  and  _372
REMARK  155  A    between atoms: _375  and  _377
REMARK  156  A    between atoms: _377  and  _378
REMARK  157  A    between atoms: _377  and  _380
REMARK  158  A    between atoms: _383  and  _385
REMARK  159  A    between atoms: _385  and  _386
REMARK  160  A    between atoms: _385  and  _388
REMARK  161  A    between atoms: _388  and  _389
REMARK  162  A    between atoms: _389  and  _390
REMARK  163  A    between atoms: _390  and  _391
REMARK  164  A    between atoms: _391  and  _392
REMARK  165  A    between atoms: _396  and  _398
REMARK  166  A    between atoms: _398  and  _399
REMARK  167  A    between atoms: _398  and  _401
REMARK  168  A    between atoms: _401  and  _402
REMARK  169  A    between atoms: _402  and  _403
REMARK  170  A    between atoms: _405  and  _407
REMARK  171  A    between atoms: _407  and  _408
REMARK  172  A    between atoms: _407  and  _410
REMARK  173  A    between atoms: _410  and  _411
REMARK  174  A    between atoms: _414  and  _416
REMARK  175  A    between atoms: _416  and  _417
REMARK  176  A    between atoms: _419  and  _421
REMARK  177  A    between atoms: _421  and  _422
REMARK  178  A    between atoms: _424  and  _426
REMARK  179  A    between atoms: _426  and  _427
REMARK  180  A    between atoms: _426  and  _429
REMARK  181  A    between atoms: _429  and  _430
REMARK  182  A    between atoms: _433  and  _435
REMARK  183  A    between atoms: _435  and  _436
REMARK  184  A    between atoms: _438  and  _440
REMARK  185  A    between atoms: _440  and  _441
REMARK  186  A    between atoms: _443  and  _445
REMARK  187  A    between atoms: _445  and  _446
REMARK  188  A    between atoms: _445  and  _448
REMARK  189  A    between atoms: _448  and  _449
REMARK  190  A    between atoms: _455  and  _457
REMARK  191  A    between atoms: _457  and  _458
REMARK  192  A    between atoms: _457  and  _460
REMARK  193  A    between atoms: _460  and  _461
REMARK  194  A    between atoms: _464  and  _466
REMARK  195  A    between atoms: _466  and  _467
REMARK  196  A    between atoms: _466  and  _469
REMARK  197  A    between atoms: _469  and  _470
REMARK  198  A    between atoms: _473  and  _475
REMARK  199  A    between atoms: _475  and  _476
REMARK  200  A    between atoms: _475  and  _478
REMARK  201  A    between atoms: _478  and  _479
REMARK  202  A    between atoms: _483  and  _484
REMARK  203  A    between atoms: _489  and  _491
REMARK  204  A    between atoms: _491  and  _492
REMARK  205  A    between atoms: _491  and  _494
REMARK  206  A    between atoms: _497  and  _499
REMARK  207  A    between atoms: _499  and  _500
REMARK  208  A    between atoms: _499  and  _502
REMARK  209  A    between atoms: _502  and  _503
REMARK  210  A    between atoms: _508  and  _510
REMARK  211  A    between atoms: _510  and  _511
REMARK  212  A    between atoms: _510  and  _513
REMARK  213  A    between atoms: _513  and  _514
REMARK  214  A    between atoms: _517  and  _519
REMARK  215  A    between atoms: _519  and  _520
REMARK  216  A    between atoms: _519  and  _522
REMARK  217  A    between atoms: _522  and  _523
REMARK  218  A    between atoms: _526  and  _528
REMARK  219  A    between atoms: _528  and  _529
REMARK  220  A    between atoms: _531  and  _533
REMARK  221  A    between atoms: _533  and  _534
REMARK  222  A    between atoms: _533  and  _536
REMARK  223  A    between atoms: _536  and  _537
REMARK  224  A    between atoms: _537  and  _538
REMARK  225  A    between atoms: _538  and  _539
REMARK  226  A    between atoms: _548  and  _550
REMARK  227  A    between atoms: _550  and  _551
REMARK  228  A    between atoms: _550  and  _553
REMARK  229  A    between atoms: _553  and  _554
REMARK                            x       y       z     vdW  Elec       q    Type
REMARK                         _______ _______ _______ _____ _____    ______ ____
ROOT
ATOM      1  NE  ARG A   1      21.016  37.130  23.466  0.00  0.00    -0.265 N 
ATOM      2  HE  ARG A   1      20.197  36.585  23.127  0.00  0.00    +0.259 HD
ATOM      3  CZ  ARG A   1      21.155  38.375  23.016  0.00  0.00    +0.342 C 
ATOM      4  NH2 ARG A   1      22.187  39.138  23.389  0.00  0.00    -0.292 N 
ATOM      5 HH21 ARG A   1      22.902  38.762  24.044  0.00  0.00    +0.255 HD
ATOM      6 HH22 ARG A   1      22.275  40.108  23.024  0.00  0.00    +0.255 HD
ATOM      7  NH1 ARG A   1      20.253  38.865  22.181  0.00  0.00    -0.292 N 
ATOM      8 HH11 ARG A   1      19.447  38.279  21.884  0.00  0.00    +0.255 HD
ATOM      9 HH12 ARG A   1      20.350  39.836  21.822  0.00  0.00    +0.255 HD
ENDROOT
BRANCH   1  10
ATOM     10  CD  ARG A   1      21.927  36.469  24.401  0.00  0.00    +0.174 C 
BRANCH  10  11
ATOM     11  CG  ARG A   1      21.278  35.260  25.042  0.00  0.00    +0.045 C 
BRANCH  11  12
ATOM     12  CB  ARG A   1      22.247  34.533  25.934  0.00  0.00    +0.029 C 
BRANCH  12  13
ATOM     13  CA  ARG A   1      21.604  33.503  26.863  0.00  0.00    +0.133 C 
BRANCH  13  14
ATOM     14  N   ARG A   1      20.882  34.138  27.963  0.00  0.00    -0.239 NA
ATOM     15  H   ARG A   1      20.789  35.174  27.984  0.00  0.00    +0.142 HD
ENDBRANCH  13  14
BRANCH  13  16
ATOM     16  C   ARG A   1      22.711  32.625  27.421  0.00  0.00    +0.224 C 
ATOM     17  O   ARG A   1      23.499  33.084  28.263  0.00  0.00    -0.287 OA
ENDBRANCH  13  16
ENDBRANCH  12  13
ENDBRANCH  11  12
ENDBRANCH  10  11
ENDBRANCH   1  10
TORSDOF 6
REMARK  Name = ../refined-set-2016/3mxe/3mxe_pocket.pdb
REMARK  229 active torsions:
REMARK  status: ('A' for Active; 'I' for Inactive)
REMARK    1  A    between atoms: _1  and  _3
REMARK    2  A    between atoms: _3  and  _4
REMARK    3  A    between atoms: _3  and  _6
REMARK    4  A    between atoms: _6  and  _7
REMARK    5  A    between atoms: _7  and  _8
REMARK    6  A    between atoms: _8  and  _9
REMARK    7  A    between atoms: _18  and  _20
REMARK    8  A    between atoms: _20  and  _21
REMARK    9  A    between atoms: _20  and  _23
REMARK   10  A    between atoms: _23  and  _24
REMARK   11  A    between atoms: _27  and  _29
REMARK   12  A    between atoms: _29  and  _30
REMARK   13  A    between atoms: _29  and  _32
REMARK   14  A    between atoms: _32  and  _33
REMARK   15  A    between atoms: _36  and  _38
REMARK   16  A    between atoms: _38  and  _39
REMARK   17  A    between atoms: _38  and  _41
REMARK   18  A    between atoms: _41  and  _42
REMARK   19  A    between atoms: _45  and  _47
REMARK   20  A    between atoms: _47  and  _48
REMARK   21  A    between atoms: _47  and  _50
REMARK   22  A    between atoms: _50  and  _51
REMARK   23  A    between atoms: _54  and  _56
REMARK   24  A    between atoms: _56  and  _57
REMARK   25  A    between atoms: _59  and  _61
REMARK   26  A    between atoms: _61  and  _62
REMARK   27  A    between atoms: _65  and  _67
REMARK   28  A    between atoms: _67  and  _68
REMARK   29  A    between atoms: _67  and  _70
REMARK   30  A    between atoms: _70  and  _71
REMARK   31  A    between atoms: _74  and  _76
REMARK   32  A    between atoms: _76  and  _77
REMARK   33  A    between atoms: _76  and  _79
REMARK   34  A    between atoms: _79  and  _80
REMARK   35  A    between atoms: _83  and  _85
REMARK   36  A    between atoms: _85  and  _86
REMARK   37  A    between atoms: _85  and  _88
REMARK   38  A    between atoms: _88  and  _89
REMARK   39  A    between atoms: _92  and  _94
REMARK   40  A    between atoms: _94  and  _95
REMARK   41  A    between atoms: _94  and  _97
REMARK   42  A    between atoms: _100  and  _102
REMARK   43  A    between atoms: _102  and  _103
REMARK   44  A    between atoms: _102  and  _105
REMARK   45  A    between atoms: _105  and  _106
REMARK   46  A    between atoms: _106  and  _107
REMARK   47  A    between atoms: _107  and  _108
REMARK   48  A    between atoms: _108  and  _109
REMARK   49  A    between atoms: _113  and  _115
REMARK   50  A    between atoms: _115  and  _116
REMARK   51  A    between atoms: _115  and  _118
REMARK   52  A    between atoms: _118  and  _119
REMARK   53  A    between atoms: _119  and  _120
REMARK   54  A    between atoms: _122  and  _124
REMARK   55  A    between atoms: _124  and  _125
REMARK   56  A    between atoms: _124  and  _127
REMARK   57  A    between atoms: _127  and  _128
REMARK   58  A    between atoms: _131  and  _133
REMARK   59  A    between atoms: _133  and  _134
REMARK   60  A    between atoms: _136  and  _138
REMARK   61  A    between atoms: _138  and  _139
REMARK   62  A    between atoms: _141  and  _143
REMARK   63  A    between atoms: _143  and  _144
REMARK   64  A    between atoms: _143  and  _146
REMARK   65  A    between atoms: _146  and  _147
REMARK   66  A    between atoms: _150  and  _152
REMARK   67  A    between atoms: _152  and  _153
REMARK   68  A    between atoms: _155  and  _157
REMARK   69  A    between atoms: _157  and  _158
REMARK   70  A    between atoms: _160  and  _162
REMARK   71  A    between atoms: _162  and  _163
REMARK   72  A    between atoms: _162  and  _165
REMARK   73  A    between atoms: _165  and  _166
REMARK   74  A    between atoms: _172  and  _174
REMARK   75  A    between atoms: _174  and  _175
REMARK   76  A    between atoms: _174  and  _177
REMARK   77  A    between atoms: _177  and  _178
REMARK   78  A    between atoms: _181  and  _183
REMARK   79  A    between atoms: _183  and  _184
REMARK   80  A    between atoms: _183  and  _186
REMARK   81  A    between atoms: _189  and  _191
REMARK   82  A    between atoms: _191  and  _192
REMARK   83  A    between atoms: _191  and  _194
REMARK   84  A    between atoms: _194  and  _195
REMARK   85  A    between atoms: _198  and  _200
REMARK   86  A    between atoms: _200  and  _201
REMARK   87  A    between atoms: _200  and  _203
REMARK   88  A    between atoms: _203  and  _204
REMARK   89  A    between atoms: _208  and  _209
REMARK   90  A    between atoms: _214  and  _216
REMARK   91  A    between atoms: _216  and  _217
REMARK   92  A    between atoms: _216  and  _219
REMARK   93  A    between atoms: _222  and  _224
REMARK   94  A    between atoms: _224  and  _225
REMARK   95  A    between atoms: _224  and  _227
REMARK   96  A    between atoms: _227  and  _228
REMARK   97  A    between atoms: _233  and  _235
REMARK   98  A    between atoms: _235  and  _236
REMARK   99  A    between atoms: _235  and  _238
REMARK  100  A    between atoms: _238  and  _239
REMARK  101  A    between atoms: _242  and  _244
REMARK  102  A    between atoms: _244  and  _245
REMARK  103  A    between atoms: _244  and  _247
REMARK  104  A    between atoms: _247  and  _248
REMARK  105  A    between atoms: _251  and  _253
REMARK  106  A    between atoms: _253  and  _254
REMARK  107  A    between atoms: _256  and  _258
REMARK  108  A    between atoms: _258  and  _259
REMARK  109  A    between atoms: _258  and  _261
REMARK  110  A    between atoms: _261  and  _262
REMARK  111  A    between atoms: _262  and  _263
REMARK  112  A    between atoms: _263  and  _264
REMARK  113  A    between atoms: _273  and  _275
REMARK  114  A    between atoms: _275  and  _276
REMARK  115  A    between atoms: _275  and  _278
REMARK  116  A    between atoms: _278  and  _279
REMARK  117  A    between atoms: _284  and  _286
REMARK  118  A    between atoms: _286  and  _287
REMARK  119  A    between atoms: _286  and  _289
REMARK  120  A    between atoms: _289  and  _290
REMARK  121  A    between atoms: _290  and  _291
REMARK  122  A    between atoms: _291  and  _292
REMARK  123  A    between atoms: _301  and  _303
REMARK  124  A    between atoms: _303  and  _304
REMARK  125  A    between atoms: _303  and  _306
REMARK  126  A    between atoms: _306  and  _307
REMARK  127  A    between atoms: _310  and  _312
REMARK  128  A    between atoms: _312  and  _313
REMARK  129  A    between atoms: _312  and  _315
REMARK  130  A    between atoms: _315  and  _316
REMARK  131  A    between atoms: _319  and  _321
REMARK  132  A    between atoms: _321  and  _322
REMARK  133  A    between atoms: _321  and  _324
REMARK  134  A    between atoms: _324  and  _325
REMARK  135  A    between atoms: _328  and  _330
REMARK  136  A    between atoms: _330  and  _331
REMARK  137  A    between atoms: _330  and  _333
REMARK  138  A    between atoms: _333  and  _334
REMARK  139  A    between atoms: _337  and  _339
REMARK  140  A    between atoms: _339  and  _340
REMARK  141  A    between atoms: _342  and  _344
REMARK  142  A    between atoms: _344  and  _345
REMARK  143  A    between atoms: _348  and  _350
REMARK  144  A    between atoms: _350  and  _351
REMARK  145  A    between atoms: _350  and  _353
REMARK  146  A    between atoms: _353  and  _354
REMARK  147  A    between atoms: _357  and  _359
REMARK  148  A    between atoms: _359  and  _360
REMARK  149  A    between atoms: _359  and  _362
REMARK  150  A    between atoms: _362  and  _363
REMARK  151  A    between atoms: _366  and  _368
REMARK  152  A    between atoms: _368  and  _369
REMARK  153  A    between atoms: _368  and  _371
REMARK  154  A    between atoms: _371  and  _372
REMARK  155  A    between atoms: _375  and  _377
REMARK  156  A    between atoms: _377  and  _378
REMARK  157  A    between atoms: _377  and  _380
REMARK  158  A    between atoms: _383  and  _385
REMARK  159  A    between atoms: _385  and  _386
REMARK  160  A    between atoms: _385  and  _388
REMARK  161  A    between atoms: _388  and  _389
REMARK  162  A    between atoms: _389  and  _390
REMARK  163  A    between atoms: _390  and  _391
REMARK  164  A    between atoms: _391  and  _392
REMARK  165  A    between atoms: _396  and  _398
REMARK  166  A    between atoms: _398  and  _399
REMARK  167  A    between atoms: _398  and  _401
REMARK  168  A    between atoms: _401  and  _402
REMARK  169  A    between atoms: _402  and  _403
REMARK  170  A    between atoms: _405  and  _407
REMARK  171  A    between atoms: _407  and  _408
REMARK  172  A    between atoms: _407  and  _410
REMARK  173  A    between atoms: _410  and  _411
REMARK  174  A    between atoms: _414  and  _416
REMARK  175  A    between atoms: _416  and  _417
REMARK  176  A    between atoms: _419  and  _421
REMARK  177  A    between atoms: _421  and  _422
REMARK  178  A    between atoms: _424  and  _426
REMARK  179  A    between atoms: _426  and  _427
REMARK  180  A    between atoms: _426  and  _429
REMARK  181  A    between atoms: _429  and  _430
REMARK  182  A    between atoms: _433  and  _435
REMARK  183  A    between atoms: _435  and  _436
REMARK  184  A    between atoms: _438  and  _440
REMARK  185  A    between atoms: _440  and  _441
REMARK  186  A    between atoms: _443  and  _445
REMARK  187  A    between atoms: _445  and  _446
REMARK  188  A    between atoms: _445  and  _448
REMARK  189  A    between atoms: _448  and  _449
REMARK  190  A    between atoms: _455  and  _457
REMARK  191  A    between atoms: _457  and  _458
REMARK  192  A    between atoms: _457  and  _460
REMARK  193  A    between atoms: _460  and  _461
REMARK  194  A    between atoms: _464  and  _466
REMARK  195  A    between atoms: _466  and  _467
REMARK  196  A    between atoms: _466  and  _469
REMARK  197  A    between atoms: _469  and  _470
REMARK  198  A    between atoms: _473  and  _475
REMARK  199  A    between atoms: _475  and  _476
REMARK  200  A    between atoms: _475  and  _478
REMARK  201  A    between atoms: _478  and  _479
REMARK  202  A    between atoms: _483  and  _484
REMARK  203  A    between atoms: _489  and  _491
REMARK  204  A    between atoms: _491  and  _492
REMARK  205  A    between atoms: _491  and  _494
REMARK  206  A    between atoms: _497  and  _499
REMARK  207  A    between atoms: _499  and  _500
REMARK  208  A    between atoms: _499  and  _502
REMARK  209  A    between atoms: _502  and  _503
REMARK  210  A    between atoms: _508  and  _510
REMARK  211  A    between atoms: _510  and  _511
REMARK  212  A    between atoms: _510  and  _513
REMARK  213  A    between atoms: _513  and  _514
REMARK  214  A    between atoms: _517  and  _519
REMARK  215  A    between atoms: _519  and  _520
REMARK  216  A    between atoms: _519  and  _522
REMARK  217  A    between atoms: _522  and  _523
REMARK  218  A    between atoms: _526  and  _528
REMARK  219  A    between atoms: _528  and  _529
REMARK  220  A    between atoms: _531  and  _533
REMARK  221  A    between atoms: _533  and  _534
REMARK  222  A    between atoms: _533  and  _536
REMARK  223  A    between atoms: _536  and  _537
REMARK  224  A    between atoms: _537  and  _538
REMARK  225  A    between atoms: _538  and  _539
REMARK  226  A    between atoms: _548  and  _550
REMARK  227  A    between atoms: _550  and  _551
REMARK  228  A    between atoms: _550  and  _553
REMARK  229  A    between atoms: _553  and  _554
REMARK                            x       y       z     vdW  Elec       q    Type
REMARK                         _______ _______ _______ _____ _____    ______ ____
ROOT
ATOM      1  C   GLY A   5      20.578  24.994  15.710  0.00  0.00    +0.243 C 
ATOM      2  N   ALA A   6      21.871  24.852  16.005  0.00  0.00    -0.297 N 
ATOM      3  H   ALA A   6      22.133  24.675  16.996  0.00  0.00    +0.150 HD
ATOM      4  O   GLY A   5      20.170  25.230  14.564  0.00  0.00    -0.273 OA
ENDROOT
BRANCH   2   5
ATOM      5  CA  ALA A   6      22.943  24.932  15.009  0.00  0.00    +0.149 C 
ATOM      6  CB  ALA A   6      23.950  26.012  15.391  0.00  0.00    +0.031 C 
BRANCH   5   7
ATOM      7  C   ALA A   6      23.665  23.605  14.847  0.00  0.00    +0.241 C 
ATOM      8  O   ALA A   6      24.215  23.086  15.796  0.00  0.00    -0.273 OA
ATOM      9  N   ASP A   7      23.677  23.089  13.615  0.00  0.00    -0.297 N 
ATOM     10  H   ASP A   7      23.148  23.584  12.869  0.00  0.00    +0.150 HD
BRANCH   9  11
ATOM     11  CA  ASP A   7      24.391  21.871  13.262  0.00  0.00    +0.160 C 
BRANCH  11  12
ATOM     12  C   ASP A   7      25.893  22.051  13.468  0.00  0.00    +0.241 C 
ATOM     13  O   ASP A   7      26.589  21.138  13.921  0.00  0.00    -0.273 OA
ATOM     14  N   ASP A   8      26.378  23.229  13.078  0.00  0.00    -0.297 N 
ATOM     15  H   ASP A   8      25.705  23.987  12.845  0.00  0.00    +0.150 HD
BRANCH  14  16
ATOM     16  CA  ASP A   8      27.801  23.508  12.961  0.00  0.00    +0.160 C 
BRANCH  16  17
ATOM     17  C   ASP A   8      28.213  24.682  13.838  0.00  0.00    +0.241 C 
ATOM     18  O   ASP A   8      27.387  25.499  14.272  0.00  0.00    -0.273 OA
ATOM     19  N   THR A   9      29.515  24.787  14.056  0.00  0.00    -0.295 N 
ATOM     20  H   THR A   9      30.159  24.099  13.615  0.00  0.00    +0.150 HD
BRANCH  19  21
ATOM     21  CA  THR A   9      30.070  25.838  14.895  0.00  0.00    +0.176 C 
BRANCH  21  22
ATOM     22  C   THR A   9      30.535  26.966  13.986  0.00  0.00    +0.243 C 
ATOM     23  N   VAL A  10      30.047  28.180  14.254  0.00  0.00    -0.298 N 
ATOM     24  H   VAL A  10      29.478  28.314  15.114  0.00  0.00    +0.150 HD
ATOM     25  O   THR A   9      31.275  26.721  13.031  0.00  0.00    -0.273 OA
BRANCH  23  26
ATOM     26  CA  VAL A  10      30.285  29.327  13.379  0.00  0.00    +0.137 C 
BRANCH  26  27
ATOM     27  CB  VAL A  10      29.021  29.732  12.585  0.00  0.00    +0.026 C 
ATOM     28  CG2 VAL A  10      28.310  28.506  11.999  0.00  0.00    +0.002 C 
ATOM     29  CG1 VAL A  10      29.423  30.687  11.444  0.00  0.00    +0.002 C 
ENDBRANCH  26  27
BRANCH  26  30
ATOM     30  C   VAL A  10      30.798  30.515  14.198  0.00  0.00    +0.227 C 
ATOM     31  O   VAL A  10      30.111  31.005  15.095  0.00  0.00    -0.286 OA
ENDBRANCH  26  30
ENDBRANCH  23  26
ENDBRANCH  21  22
BRANCH  21  32
ATOM     32  CB  THR A   9      31.199  25.273  15.762  0.00  0.00    +0.137 C 
ATOM     33  CG2 THR A   9      31.984  26.401  16.450  0.00  0.00    +0.034 C 
BRANCH  32  34
ATOM     34  OG1 THR A   9      30.605  24.398  16.734  0.00  0.00    -0.382 OA
ATOM     35  HG1 THR A   9      30.127  23.666  16.269  0.00  0.00    +0.210 HD
ENDBRANCH  32  34
ENDBRANCH  21  32
ENDBRANCH  19  21
ENDBRANCH  16  17
BRANCH  16  36
ATOM     36  CB  ASP A   8      28.137  23.852  11.512  0.00  0.00    +0.143 C 
BRANCH  36  37
ATOM     37  CG  ASP A   8      27.808  22.737  10.553  0.00  0.00    +0.367 C 
ATOM     38  OD2 ASP A   8      27.855  21.567  10.974  0.00  0.00    -0.246 OA
ATOM     39  OD1 ASP A   8      27.544  23.048   9.368  0.00  0.00    -0.246 OA
ENDBRANCH  36  37
ENDBRANCH  16  36
ENDBRANCH  14  16
ENDBRANCH  11  12
BRANCH  11  40
ATOM     40  CB  ASP A   7      24.203  21.554  11.775  0.00  0.00    +0.143 C 
BRANCH  40  41
ATOM     41  CG  ASP A   7      22.776  21.188  11.401  0.00  0.00    +0.367 C 
ATOM     42  OD2 ASP A   7      21.891  21.087  12.283  0.00  0.00    -0.246 OA
ATOM     43  OD1 ASP A   7      22.554  20.996  10.186  0.00  0.00    -0.246 OA
ENDBRANCH  40  41
ENDBRANCH  11  40
ENDBRANCH   9  11
ENDBRANCH   5   7
ENDBRANCH   2   5
BRANCH   1  44
ATOM     44  CA  GLY A   5      19.592  24.864  16.868  0.00  0.00    +0.176 C 
BRANCH  44  46
ATOM     45  C   THR A   4      20.653  23.551  18.655  0.00  0.00    +0.243 C 
ATOM     46  N   GLY A   5      20.189  24.722  18.216  0.00  0.00    -0.295 N 
ATOM     47  H   GLY A   5      20.248  25.555  18.835  0.00  0.00    +0.150 HD
ATOM     48  O   THR A   4      20.548  22.516  18.004  0.00  0.00    -0.273 OA
BRANCH  45  49
ATOM     49  CA  THR A   4      21.381  23.523  20.020  0.00  0.00    +0.176 C 
BRANCH  49  51
ATOM     50  C   ASP A   3      22.888  25.404  19.704  0.00  0.00    +0.241 C 
ATOM     51  N   THR A   4      21.933  24.807  20.413  0.00  0.00    -0.295 N 
ATOM     52  H   THR A   4      21.573  25.272  21.271  0.00  0.00    +0.150 HD
ATOM     53  O   ASP A   3      23.363  24.919  18.693  0.00  0.00    -0.273 OA
BRANCH  50  54
ATOM     54  CA  ASP A   3      23.343  26.771  20.211  0.00  0.00    +0.160 C 
BRANCH  54  57
ATOM     55  C   LEU A   2      24.405  27.232  22.356  0.00  0.00    +0.241 C 
ATOM     56  O   LEU A   2      23.371  27.637  22.894  0.00  0.00    -0.273 OA
ATOM     57  N   ASP A   3      24.430  26.638  21.167  0.00  0.00    -0.297 N 
ATOM     58  H   ASP A   3      25.255  26.059  20.912  0.00  0.00    +0.150 HD
BRANCH  55  59
ATOM     59  CA  LEU A   2      25.738  27.351  23.059  0.00  0.00    +0.149 C 
BRANCH  59  61
ATOM     60  C   LEU A   1      26.449  29.502  22.182  0.00  0.00    +0.238 C 
ATOM     61  N   LEU A   2      26.053  28.763  23.209  0.00  0.00    -0.297 N 
ATOM     62  H   LEU A   2      25.965  29.205  24.147  0.00  0.00    +0.150 HD
ATOM     63  O   LEU A   1      26.678  29.042  21.064  0.00  0.00    -0.274 OA
BRANCH  60  64
ATOM     64  CA  LEU A   1      26.623  30.983  22.445  0.00  0.00    +0.145 C 
BRANCH  64  65
ATOM     65  N   LEU A   1      27.953  31.377  22.059  0.00  0.00    -0.238 NA
ATOM     66  H   LEU A   1      28.149  31.543  21.051  0.00  0.00    +0.142 HD
ENDBRANCH  64  65
BRANCH  64  67
ATOM     67  CB  LEU A   1      25.620  31.755  21.599  0.00  0.00    +0.026 C 
BRANCH  67  68
ATOM     68  CG  LEU A   1      24.137  31.522  21.842  0.00  0.00    +0.002 C 
ATOM     69  CD2 LEU A   1      23.745  32.088  23.193  0.00  0.00    +0.000 C 
ATOM     70  CD1 LEU A   1      23.354  32.165  20.672  0.00  0.00    +0.000 C 
ENDBRANCH  67  68
ENDBRANCH  64  67
ENDBRANCH  60  64
ENDBRANCH  59  61
BRANCH  59  71
ATOM     71  CB  LEU A   2      25.690  26.655  24.423  0.00  0.00    +0.029 C 
BRANCH  71  72
ATOM     72  CG  LEU A   2      26.945  26.771  25.299  0.00  0.00    +0.002 C 
ATOM     73  CD2 LEU A   2      26.754  25.985  26.614  0.00  0.00    +0.000 C 
ATOM     74  CD1 LEU A   2      28.165  26.287  24.538  0.00  0.00    +0.000 C 
ENDBRANCH  71  72
ENDBRANCH  59  71
ENDBRANCH  55  59
ENDBRANCH  54  57
BRANCH  54  75
ATOM     75  CB  ASP A   3      23.832  27.650  19.066  0.00  0.00    +0.143 C 
BRANCH  75  76
ATOM     76  CG  ASP A   3      22.721  28.063  18.108  0.00  0.00    +0.367 C 
ATOM     77  OD2 ASP A   3      21.585  27.522  18.178  0.00  0.00    -0.246 OA
ATOM     78  OD1 ASP A   3      23.003  28.949  17.288  0.00  0.00    -0.246 OA
ENDBRANCH  75  76
ENDBRANCH  54  75
ENDBRANCH  50  54
ENDBRANCH  49  51
BRANCH  49  79
ATOM     79  CB  THR A   4      20.458  22.934  21.110  0.00  0.00    +0.137 C 
ATOM     80  CG2 THR A   4      21.245  22.694  22.412  0.00  0.00    +0.034 C 
BRANCH  79  81
ATOM     81  OG1 THR A   4      19.335  23.792  21.358  0.00  0.00    -0.382 OA
ATOM     82  HG1 THR A   4      18.812  23.898  20.524  0.00  0.00    +0.210 HD
ENDBRANCH  79  81
ENDBRANCH  49  79
ENDBRANCH  45  49
ENDBRANCH  44  46
ENDBRANCH   1  44
TORSDOF 35
REMARK  Name = ../refined-set-2016/3mxe/3mxe_pocket.pdb
REMARK  229 active torsions:
REMARK  status: ('A' for Active; 'I' for Inactive)
REMARK    1  A    between atoms: _1  and  _3
REMARK    2  A    between atoms: _3  and  _4
REMARK    3  A    between atoms: _3  and  _6
REMARK    4  A    between atoms: _6  and  _7
REMARK    5  A    between atoms: _7  and  _8
REMARK    6  A    between atoms: _8  and  _9
REMARK    7  A    between atoms: _18  and  _20
REMARK    8  A    between atoms: _20  and  _21
REMARK    9  A    between atoms: _20  and  _23
REMARK   10  A    between atoms: _23  and  _24
REMARK   11  A    between atoms: _27  and  _29
REMARK   12  A    between atoms: _29  and  _30
REMARK   13  A    between atoms: _29  and  _32
REMARK   14  A    between atoms: _32  and  _33
REMARK   15  A    between atoms: _36  and  _38
REMARK   16  A    between atoms: _38  and  _39
REMARK   17  A    between atoms: _38  and  _41
REMARK   18  A    between atoms: _41  and  _42
REMARK   19  A    between atoms: _45  and  _47
REMARK   20  A    between atoms: _47  and  _48
REMARK   21  A    between atoms: _47  and  _50
REMARK   22  A    between atoms: _50  and  _51
REMARK   23  A    between atoms: _54  and  _56
REMARK   24  A    between atoms: _56  and  _57
REMARK   25  A    between atoms: _59  and  _61
REMARK   26  A    between atoms: _61  and  _62
REMARK   27  A    between atoms: _65  and  _67
REMARK   28  A    between atoms: _67  and  _68
REMARK   29  A    between atoms: _67  and  _70
REMARK   30  A    between atoms: _70  and  _71
REMARK   31  A    between atoms: _74  and  _76
REMARK   32  A    between atoms: _76  and  _77
REMARK   33  A    between atoms: _76  and  _79
REMARK   34  A    between atoms: _79  and  _80
REMARK   35  A    between atoms: _83  and  _85
REMARK   36  A    between atoms: _85  and  _86
REMARK   37  A    between atoms: _85  and  _88
REMARK   38  A    between atoms: _88  and  _89
REMARK   39  A    between atoms: _92  and  _94
REMARK   40  A    between atoms: _94  and  _95
REMARK   41  A    between atoms: _94  and  _97
REMARK   42  A    between atoms: _100  and  _102
REMARK   43  A    between atoms: _102  and  _103
REMARK   44  A    between atoms: _102  and  _105
REMARK   45  A    between atoms: _105  and  _106
REMARK   46  A    between atoms: _106  and  _107
REMARK   47  A    between atoms: _107  and  _108
REMARK   48  A    between atoms: _108  and  _109
REMARK   49  A    between atoms: _113  and  _115
REMARK   50  A    between atoms: _115  and  _116
REMARK   51  A    between atoms: _115  and  _118
REMARK   52  A    between atoms: _118  and  _119
REMARK   53  A    between atoms: _119  and  _120
REMARK   54  A    between atoms: _122  and  _124
REMARK   55  A    between atoms: _124  and  _125
REMARK   56  A    between atoms: _124  and  _127
REMARK   57  A    between atoms: _127  and  _128
REMARK   58  A    between atoms: _131  and  _133
REMARK   59  A    between atoms: _133  and  _134
REMARK   60  A    between atoms: _136  and  _138
REMARK   61  A    between atoms: _138  and  _139
REMARK   62  A    between atoms: _141  and  _143
REMARK   63  A    between atoms: _143  and  _144
REMARK   64  A    between atoms: _143  and  _146
REMARK   65  A    between atoms: _146  and  _147
REMARK   66  A    between atoms: _150  and  _152
REMARK   67  A    between atoms: _152  and  _153
REMARK   68  A    between atoms: _155  and  _157
REMARK   69  A    between atoms: _157  and  _158
REMARK   70  A    between atoms: _160  and  _162
REMARK   71  A    between atoms: _162  and  _163
REMARK   72  A    between atoms: _162  and  _165
REMARK   73  A    between atoms: _165  and  _166
REMARK   74  A    between atoms: _172  and  _174
REMARK   75  A    between atoms: _174  and  _175
REMARK   76  A    between atoms: _174  and  _177
REMARK   77  A    between atoms: _177  and  _178
REMARK   78  A    between atoms: _181  and  _183
REMARK   79  A    between atoms: _183  and  _184
REMARK   80  A    between atoms: _183  and  _186
REMARK   81  A    between atoms: _189  and  _191
REMARK   82  A    between atoms: _191  and  _192
REMARK   83  A    between atoms: _191  and  _194
REMARK   84  A    between atoms: _194  and  _195
REMARK   85  A    between atoms: _198  and  _200
REMARK   86  A    between atoms: _200  and  _201
REMARK   87  A    between atoms: _200  and  _203
REMARK   88  A    between atoms: _203  and  _204
REMARK   89  A    between atoms: _208  and  _209
REMARK   90  A    between atoms: _214  and  _216
REMARK   91  A    between atoms: _216  and  _217
REMARK   92  A    between atoms: _216  and  _219
REMARK   93  A    between atoms: _222  and  _224
REMARK   94  A    between atoms: _224  and  _225
REMARK   95  A    between atoms: _224  and  _227
REMARK   96  A    between atoms: _227  and  _228
REMARK   97  A    between atoms: _233  and  _235
REMARK   98  A    between atoms: _235  and  _236
REMARK   99  A    between atoms: _235  and  _238
REMARK  100  A    between atoms: _238  and  _239
REMARK  101  A    between atoms: _242  and  _244
REMARK  102  A    between atoms: _244  and  _245
REMARK  103  A    between atoms: _244  and  _247
REMARK  104  A    between atoms: _247  and  _248
REMARK  105  A    between atoms: _251  and  _253
REMARK  106  A    between atoms: _253  and  _254
REMARK  107  A    between atoms: _256  and  _258
REMARK  108  A    between atoms: _258  and  _259
REMARK  109  A    between atoms: _258  and  _261
REMARK  110  A    between atoms: _261  and  _262
REMARK  111  A    between atoms: _262  and  _263
REMARK  112  A    between atoms: _263  and  _264
REMARK  113  A    between atoms: _273  and  _275
REMARK  114  A    between atoms: _275  and  _276
REMARK  115  A    between atoms: _275  and  _278
REMARK  116  A    between atoms: _278  and  _279
REMARK  117  A    between atoms: _284  and  _286
REMARK  118  A    between atoms: _286  and  _287
REMARK  119  A    between atoms: _286  and  _289
REMARK  120  A    between atoms: _289  and  _290
REMARK  121  A    between atoms: _290  and  _291
REMARK  122  A    between atoms: _291  and  _292
REMARK  123  A    between atoms: _301  and  _303
REMARK  124  A    between atoms: _303  and  _304
REMARK  125  A    between atoms: _303  and  _306
REMARK  126  A    between atoms: _306  and  _307
REMARK  127  A    between atoms: _310  and  _312
REMARK  128  A    between atoms: _312  and  _313
REMARK  129  A    between atoms: _312  and  _315
REMARK  130  A    between atoms: _315  and  _316
REMARK  131  A    between atoms: _319  and  _321
REMARK  132  A    between atoms: _321  and  _322
REMARK  133  A    between atoms: _321  and  _324
REMARK  134  A    between atoms: _324  and  _325
REMARK  135  A    between atoms: _328  and  _330
REMARK  136  A    between atoms: _330  and  _331
REMARK  137  A    between atoms: _330  and  _333
REMARK  138  A    between atoms: _333  and  _334
REMARK  139  A    between atoms: _337  and  _339
REMARK  140  A    between atoms: _339  and  _340
REMARK  141  A    between atoms: _342  and  _344
REMARK  142  A    between atoms: _344  and  _345
REMARK  143  A    between atoms: _348  and  _350
REMARK  144  A    between atoms: _350  and  _351
REMARK  145  A    between atoms: _350  and  _353
REMARK  146  A    between atoms: _353  and  _354
REMARK  147  A    between atoms: _357  and  _359
REMARK  148  A    between atoms: _359  and  _360
REMARK  149  A    between atoms: _359  and  _362
REMARK  150  A    between atoms: _362  and  _363
REMARK  151  A    between atoms: _366  and  _368
REMARK  152  A    between atoms: _368  and  _369
REMARK  153  A    between atoms: _368  and  _371
REMARK  154  A    between atoms: _371  and  _372
REMARK  155  A    between atoms: _375  and  _377
REMARK  156  A    between atoms: _377  and  _378
REMARK  157  A    between atoms: _377  and  _380
REMARK  158  A    between atoms: _383  and  _385
REMARK  159  A    between atoms: _385  and  _386
REMARK  160  A    between atoms: _385  and  _388
REMARK  161  A    between atoms: _388  and  _389
REMARK  162  A    between atoms: _389  and  _390
REMARK  163  A    between atoms: _390  and  _391
REMARK  164  A    between atoms: _391  and  _392
REMARK  165  A    between atoms: _396  and  _398
REMARK  166  A    between atoms: _398  and  _399
REMARK  167  A    between atoms: _398  and  _401
REMARK  168  A    between atoms: _401  and  _402
REMARK  169  A    between atoms: _402  and  _403
REMARK  170  A    between atoms: _405  and  _407
REMARK  171  A    between atoms: _407  and  _408
REMARK  172  A    between atoms: _407  and  _410
REMARK  173  A    between atoms: _410  and  _411
REMARK  174  A    between atoms: _414  and  _416
REMARK  175  A    between atoms: _416  and  _417
REMARK  176  A    between atoms: _419  and  _421
REMARK  177  A    between atoms: _421  and  _422
REMARK  178  A    between atoms: _424  and  _426
REMARK  179  A    between atoms: _426  and  _427
REMARK  180  A    between atoms: _426  and  _429
REMARK  181  A    between atoms: _429  and  _430
REMARK  182  A    between atoms: _433  and  _435
REMARK  183  A    between atoms: _435  and  _436
REMARK  184  A    between atoms: _438  and  _440
REMARK  185  A    between atoms: _440  and  _441
REMARK  186  A    between atoms: _443  and  _445
REMARK  187  A    between atoms: _445  and  _446
REMARK  188  A    between atoms: _445  and  _448
REMARK  189  A    between atoms: _448  and  _449
REMARK  190  A    between atoms: _455  and  _457
REMARK  191  A    between atoms: _457  and  _458
REMARK  192  A    between atoms: _457  and  _460
REMARK  193  A    between atoms: _460  and  _461
REMARK  194  A    between atoms: _464  and  _466
REMARK  195  A    between atoms: _466  and  _467
REMARK  196  A    between atoms: _466  and  _469
REMARK  197  A    between atoms: _469  and  _470
REMARK  198  A    between atoms: _473  and  _475
REMARK  199  A    between atoms: _475  and  _476
REMARK  200  A    between atoms: _475  and  _478
REMARK  201  A    between atoms: _478  and  _479
REMARK  202  A    between atoms: _483  and  _484
REMARK  203  A    between atoms: _489  and  _491
REMARK  204  A    between atoms: _491  and  _492
REMARK  205  A    between atoms: _491  and  _494
REMARK  206  A    between atoms: _497  and  _499
REMARK  207  A    between atoms: _499  and  _500
REMARK  208  A    between atoms: _499  and  _502
REMARK  209  A    between atoms: _502  and  _503
REMARK  210  A    between atoms: _508  and  _510
REMARK  211  A    between atoms: _510  and  _511
REMARK  212  A    between atoms: _510  and  _513
REMARK  213  A    between atoms: _513  and  _514
REMARK  214  A    between atoms: _517  and  _519
REMARK  215  A    between atoms: _519  and  _520
REMARK  216  A    between atoms: _519  and  _522
REMARK  217  A    between atoms: _522  and  _523
REMARK  218  A    between atoms: _526  and  _528
REMARK  219  A    between atoms: _528  and  _529
REMARK  220  A    between atoms: _531  and  _533
REMARK  221  A    between atoms: _533  and  _534
REMARK  222  A    between atoms: _533  and  _536
REMARK  223  A    between atoms: _536  and  _537
REMARK  224  A    between atoms: _537  and  _538
REMARK  225  A    between atoms: _538  and  _539
REMARK  226  A    between atoms: _548  and  _550
REMARK  227  A    between atoms: _550  and  _551
REMARK  228  A    between atoms: _550  and  _553
REMARK  229  A    between atoms: _553  and  _554
REMARK                            x       y       z     vdW  Elec       q    Type
REMARK                         _______ _______ _______ _____ _____    ______ ____
ROOT
ATOM      1  C   GLY A   5      19.113  31.261   8.064  0.00  0.00    +0.243 C 
ATOM      2  N   ILE A   6      18.589  31.884   9.108  0.00  0.00    -0.297 N 
ATOM      3  H   ILE A   6      19.159  32.007   9.969  0.00  0.00    +0.150 HD
ATOM      4  O   GLY A   5      18.565  31.220   6.952  0.00  0.00    -0.273 OA
ENDROOT
BRANCH   2   5
ATOM      5  CA  ILE A   6      17.230  32.399   9.070  0.00  0.00    +0.149 C 
BRANCH   5   6
ATOM      6  C   ILE A   6      17.035  33.525   8.062  0.00  0.00    +0.241 C 
ATOM      7  N   GLY A   7      18.110  34.268   7.779  0.00  0.00    -0.295 N 
ATOM      8  H   GLY A   7      19.029  33.997   8.183  0.00  0.00    +0.150 HD
ATOM      9  O   ILE A   6      15.926  33.694   7.528  0.00  0.00    -0.273 OA
BRANCH   7  10
ATOM     10  CA  GLY A   7      18.036  35.447   6.921  0.00  0.00    +0.176 C 
BRANCH  10  11
ATOM     11  C   GLY A   7      18.608  35.319   5.521  0.00  0.00    +0.243 C 
ATOM     12  N   GLY A   8      19.082  34.133   5.155  0.00  0.00    -0.295 N 
ATOM     13  H   GLY A   8      18.999  33.331   5.812  0.00  0.00    +0.150 HD
ATOM     14  O   GLY A   7      18.597  36.287   4.772  0.00  0.00    -0.273 OA
BRANCH  12  15
ATOM     15  CA  GLY A   8      19.713  33.926   3.863  0.00  0.00    +0.176 C 
BRANCH  15  16
ATOM     16  C   GLY A   8      21.034  33.219   3.997  0.00  0.00    +0.243 C 
ATOM     17  O   GLY A   8      21.352  32.656   5.060  0.00  0.00    -0.273 OA
ATOM     18  N   PHE A   9      21.818  33.292   2.927  0.00  0.00    -0.297 N 
ATOM     19  H   PHE A   9      21.535  33.912   2.141  0.00  0.00    +0.150 HD
BRANCH  18  20
ATOM     20  CA  PHE A   9      23.049  32.543   2.814  0.00  0.00    +0.153 C 
BRANCH  20  21
ATOM     21  C   PHE A   9      24.266  33.442   2.925  0.00  0.00    +0.241 C 
ATOM     22  N   ILE A  10      25.306  32.900   3.552  0.00  0.00    -0.298 N 
ATOM     23  H   ILE A  10      25.205  31.948   3.959  0.00  0.00    +0.150 HD
ATOM     24  O   PHE A   9      24.247  34.597   2.496  0.00  0.00    -0.273 OA
BRANCH  22  25
ATOM     25  CA  ILE A  10      26.576  33.587   3.690  0.00  0.00    +0.137 C 
BRANCH  25  26
ATOM     26  C   ILE A  10      27.717  32.674   3.258  0.00  0.00    +0.227 C 
ATOM     27  O   ILE A  10      27.562  31.461   3.161  0.00  0.00    -0.286 OA
ENDBRANCH  25  26
BRANCH  25  28
ATOM     28  CB  ILE A  10      26.808  34.076   5.143  0.00  0.00    +0.026 C 
ATOM     29  CG2 ILE A  10      25.646  34.948   5.605  0.00  0.00    +0.002 C 
BRANCH  28  30
ATOM     30  CG1 ILE A  10      26.991  32.905   6.110  0.00  0.00    +0.002 C 
ATOM     31  CD1 ILE A  10      27.373  33.332   7.528  0.00  0.00    +0.000 C 
ENDBRANCH  28  30
ENDBRANCH  25  28
ENDBRANCH  22  25
ENDBRANCH  20  21
BRANCH  20  32
ATOM     32  CB  PHE A   9      23.060  31.746   1.506  0.00  0.00    +0.055 C 
BRANCH  32  33
ATOM     33  CG  PHE A   9      22.220  30.516   1.577  0.00  0.00    -0.020 A 
ATOM     34  CD2 PHE A   9      20.842  30.617   1.669  0.00  0.00    -0.004 A 
ATOM     35  CE2 PHE A   9      20.057  29.489   1.772  0.00  0.00    -0.000 A 
ATOM     36  CZ  PHE A   9      20.657  28.246   1.793  0.00  0.00    -0.000 A 
ATOM     37  CE1 PHE A   9      22.029  28.132   1.728  0.00  0.00    -0.000 A 
ATOM     38  CD1 PHE A   9      22.809  29.258   1.633  0.00  0.00    -0.004 A 
ENDBRANCH  32  33
ENDBRANCH  20  32
ENDBRANCH  18  20
ENDBRANCH  15  16
ENDBRANCH  12  15
ENDBRANCH  10  11
ENDBRANCH   7  10
ENDBRANCH   5   6
BRANCH   5  39
ATOM     39  CB  ILE A   6      16.738  32.860  10.464  0.00  0.00    +0.027 C 
ATOM     40  CG2 ILE A   6      17.218  34.287  10.791  0.00  0.00    +0.002 C 
BRANCH  39  41
ATOM     41  CG1 ILE A   6      15.213  32.766  10.525  0.00  0.00    +0.002 C 
ATOM     42  CD1 ILE A   6      14.640  32.949  11.930  0.00  0.00    +0.000 C 
ENDBRANCH  39  41
ENDBRANCH   5  39
ENDBRANCH   2   5
BRANCH   1  43
ATOM     43  CA  GLY A   5      20.467  30.621   8.275  0.00  0.00    +0.176 C 
BRANCH  43  46
ATOM     44  C   GLY A   4      21.491  29.251   6.533  0.00  0.00    +0.243 C 
ATOM     45  O   GLY A   4      21.433  28.229   7.209  0.00  0.00    -0.273 OA
ATOM     46  N   GLY A   5      21.102  30.441   6.971  0.00  0.00    -0.295 N 
ATOM     47  H   GLY A   5      21.254  31.274   6.367  0.00  0.00    +0.150 HD
BRANCH  44  48
ATOM     48  CA  GLY A   4      22.052  29.210   5.128  0.00  0.00    +0.176 C 
BRANCH  48  50
ATOM     49  C   ILE A   3      24.468  29.067   4.767  0.00  0.00    +0.241 C 
ATOM     50  N   GLY A   4      23.307  28.486   5.070  0.00  0.00    -0.295 N 
ATOM     51  H   GLY A   4      23.301  27.466   5.274  0.00  0.00    +0.150 HD
ATOM     52  O   ILE A   3      24.607  30.273   4.536  0.00  0.00    -0.273 OA
BRANCH  49  53
ATOM     53  CA  ILE A   3      25.660  28.134   4.712  0.00  0.00    +0.149 C 
BRANCH  53  55
ATOM     54  C   MET A   2      27.236  27.864   2.889  0.00  0.00    +0.241 C 
ATOM     55  N   ILE A   3      26.658  28.657   3.779  0.00  0.00    -0.297 N 
ATOM     56  H   ILE A   3      26.917  29.664   3.815  0.00  0.00    +0.150 HD
ATOM     57  O   MET A   2      27.013  26.667   2.833  0.00  0.00    -0.273 OA
BRANCH  54  58
ATOM     58  CA  MET A   2      28.208  28.522   1.929  0.00  0.00    +0.149 C 
BRANCH  58  61
ATOM     59  C   LYS A   1      30.585  28.062   2.053  0.00  0.00    +0.238 C 
ATOM     60  O   LYS A   1      30.850  29.228   2.359  0.00  0.00    -0.274 OA
ATOM     61  N   MET A   2      29.361  27.664   1.712  0.00  0.00    -0.297 N 
ATOM     62  H   MET A   2      29.228  26.725   1.284  0.00  0.00    +0.150 HD
BRANCH  59  63
ATOM     63  CA  LYS A   1      31.689  27.010   2.012  0.00  0.00    +0.145 C 
BRANCH  63  64
ATOM     64  N   LYS A   1      32.961  27.697   1.826  0.00  0.00    -0.238 NA
ATOM     65  H   LYS A   1      33.107  28.614   2.295  0.00  0.00    +0.142 HD
ENDBRANCH  63  64
BRANCH  63  66
ATOM     66  CB  LYS A   1      31.745  26.214   3.315  0.00  0.00    +0.026 C 
BRANCH  66  67
ATOM     67  CG  LYS A   1      30.538  25.351   3.590  0.00  0.00    -0.000 C 
BRANCH  67  68
ATOM     68  CD  LYS A   1      30.766  24.443   4.801  0.00  0.00    -0.024 C 
BRANCH  68  69
ATOM     69  CE  LYS A   1      29.826  23.228   4.817  0.00  0.00    -0.086 C 
BRANCH  69  70
ATOM     70  NZ  LYS A   1      28.538  23.559   5.493  0.00  0.00    +0.380 N 
ATOM     71  HZ1 LYS A   1      28.727  23.849   6.474  0.00  0.00    -0.089 HD
ATOM     72  HZ2 LYS A   1      27.921  22.722   5.490  0.00  0.00    -0.089 HD
ATOM     73  HZ3 LYS A   1      28.071  24.337   4.985  0.00  0.00    -0.089 HD
ENDBRANCH  69  70
ENDBRANCH  68  69
ENDBRANCH  67  68
ENDBRANCH  66  67
ENDBRANCH  63  66
ENDBRANCH  59  63
ENDBRANCH  58  61
BRANCH  58  74
ATOM     74  CB  MET A   2      27.518  28.860   0.612  0.00  0.00    +0.041 C 
BRANCH  74  75
ATOM     75  CG  MET A   2      28.325  29.821  -0.247  0.00  0.00    +0.060 C 
BRANCH  75  76
ATOM     76  SD  MET A   2      27.535  30.129  -1.812  0.00  0.00    -0.139 S 
ATOM     77  CE  MET A   2      26.072  31.004  -1.258  0.00  0.00    +0.069 C 
ENDBRANCH  75  76
ENDBRANCH  74  75
ENDBRANCH  58  74
ENDBRANCH  54  58
ENDBRANCH  53  55
BRANCH  53  78
ATOM     78  CB  ILE A   3      26.246  27.878   6.130  0.00  0.00    +0.027 C 
ATOM     79  CG2 ILE A   3      27.422  26.908   6.037  0.00  0.00    +0.002 C 
BRANCH  78  80
ATOM     80  CG1 ILE A   3      26.679  29.180   6.827  0.00  0.00    +0.002 C 
ATOM     81  CD1 ILE A   3      27.150  28.996   8.281  0.00  0.00    +0.000 C 
ENDBRANCH  78  80
ENDBRANCH  53  78
ENDBRANCH  49  53
ENDBRANCH  48  50
ENDBRANCH  44  48
ENDBRANCH  43  46
ENDBRANCH   1  43
TORSDOF 36
REMARK  Name = ../refined-set-2016/3mxe/3mxe_pocket.pdb
REMARK  229 active torsions:
REMARK  status: ('A' for Active; 'I' for Inactive)
REMARK    1  A    between atoms: _1  and  _3
REMARK    2  A    between atoms: _3  and  _4
REMARK    3  A    between atoms: _3  and  _6
REMARK    4  A    between atoms: _6  and  _7
REMARK    5  A    between atoms: _7  and  _8
REMARK    6  A    between atoms: _8  and  _9
REMARK    7  A    between atoms: _18  and  _20
REMARK    8  A    between atoms: _20  and  _21
REMARK    9  A    between atoms: _20  and  _23
REMARK   10  A    between atoms: _23  and  _24
REMARK   11  A    between atoms: _27  and  _29
REMARK   12  A    between atoms: _29  and  _30
REMARK   13  A    between atoms: _29  and  _32
REMARK   14  A    between atoms: _32  and  _33
REMARK   15  A    between atoms: _36  and  _38
REMARK   16  A    between atoms: _38  and  _39
REMARK   17  A    between atoms: _38  and  _41
REMARK   18  A    between atoms: _41  and  _42
REMARK   19  A    between atoms: _45  and  _47
REMARK   20  A    between atoms: _47  and  _48
REMARK   21  A    between atoms: _47  and  _50
REMARK   22  A    between atoms: _50  and  _51
REMARK   23  A    between atoms: _54  and  _56
REMARK   24  A    between atoms: _56  and  _57
REMARK   25  A    between atoms: _59  and  _61
REMARK   26  A    between atoms: _61  and  _62
REMARK   27  A    between atoms: _65  and  _67
REMARK   28  A    between atoms: _67  and  _68
REMARK   29  A    between atoms: _67  and  _70
REMARK   30  A    between atoms: _70  and  _71
REMARK   31  A    between atoms: _74  and  _76
REMARK   32  A    between atoms: _76  and  _77
REMARK   33  A    between atoms: _76  and  _79
REMARK   34  A    between atoms: _79  and  _80
REMARK   35  A    between atoms: _83  and  _85
REMARK   36  A    between atoms: _85  and  _86
REMARK   37  A    between atoms: _85  and  _88
REMARK   38  A    between atoms: _88  and  _89
REMARK   39  A    between atoms: _92  and  _94
REMARK   40  A    between atoms: _94  and  _95
REMARK   41  A    between atoms: _94  and  _97
REMARK   42  A    between atoms: _100  and  _102
REMARK   43  A    between atoms: _102  and  _103
REMARK   44  A    between atoms: _102  and  _105
REMARK   45  A    between atoms: _105  and  _106
REMARK   46  A    between atoms: _106  and  _107
REMARK   47  A    between atoms: _107  and  _108
REMARK   48  A    between atoms: _108  and  _109
REMARK   49  A    between atoms: _113  and  _115
REMARK   50  A    between atoms: _115  and  _116
REMARK   51  A    between atoms: _115  and  _118
REMARK   52  A    between atoms: _118  and  _119
REMARK   53  A    between atoms: _119  and  _120
REMARK   54  A    between atoms: _122  and  _124
REMARK   55  A    between atoms: _124  and  _125
REMARK   56  A    between atoms: _124  and  _127
REMARK   57  A    between atoms: _127  and  _128
REMARK   58  A    between atoms: _131  and  _133
REMARK   59  A    between atoms: _133  and  _134
REMARK   60  A    between atoms: _136  and  _138
REMARK   61  A    between atoms: _138  and  _139
REMARK   62  A    between atoms: _141  and  _143
REMARK   63  A    between atoms: _143  and  _144
REMARK   64  A    between atoms: _143  and  _146
REMARK   65  A    between atoms: _146  and  _147
REMARK   66  A    between atoms: _150  and  _152
REMARK   67  A    between atoms: _152  and  _153
REMARK   68  A    between atoms: _155  and  _157
REMARK   69  A    between atoms: _157  and  _158
REMARK   70  A    between atoms: _160  and  _162
REMARK   71  A    between atoms: _162  and  _163
REMARK   72  A    between atoms: _162  and  _165
REMARK   73  A    between atoms: _165  and  _166
REMARK   74  A    between atoms: _172  and  _174
REMARK   75  A    between atoms: _174  and  _175
REMARK   76  A    between atoms: _174  and  _177
REMARK   77  A    between atoms: _177  and  _178
REMARK   78  A    between atoms: _181  and  _183
REMARK   79  A    between atoms: _183  and  _184
REMARK   80  A    between atoms: _183  and  _186
REMARK   81  A    between atoms: _189  and  _191
REMARK   82  A    between atoms: _191  and  _192
REMARK   83  A    between atoms: _191  and  _194
REMARK   84  A    between atoms: _194  and  _195
REMARK   85  A    between atoms: _198  and  _200
REMARK   86  A    between atoms: _200  and  _201
REMARK   87  A    between atoms: _200  and  _203
REMARK   88  A    between atoms: _203  and  _204
REMARK   89  A    between atoms: _208  and  _209
REMARK   90  A    between atoms: _214  and  _216
REMARK   91  A    between atoms: _216  and  _217
REMARK   92  A    between atoms: _216  and  _219
REMARK   93  A    between atoms: _222  and  _224
REMARK   94  A    between atoms: _224  and  _225
REMARK   95  A    between atoms: _224  and  _227
REMARK   96  A    between atoms: _227  and  _228
REMARK   97  A    between atoms: _233  and  _235
REMARK   98  A    between atoms: _235  and  _236
REMARK   99  A    between atoms: _235  and  _238
REMARK  100  A    between atoms: _238  and  _239
REMARK  101  A    between atoms: _242  and  _244
REMARK  102  A    between atoms: _244  and  _245
REMARK  103  A    between atoms: _244  and  _247
REMARK  104  A    between atoms: _247  and  _248
REMARK  105  A    between atoms: _251  and  _253
REMARK  106  A    between atoms: _253  and  _254
REMARK  107  A    between atoms: _256  and  _258
REMARK  108  A    between atoms: _258  and  _259
REMARK  109  A    between atoms: _258  and  _261
REMARK  110  A    between atoms: _261  and  _262
REMARK  111  A    between atoms: _262  and  _263
REMARK  112  A    between atoms: _263  and  _264
REMARK  113  A    between atoms: _273  and  _275
REMARK  114  A    between atoms: _275  and  _276
REMARK  115  A    between atoms: _275  and  _278
REMARK  116  A    between atoms: _278  and  _279
REMARK  117  A    between atoms: _284  and  _286
REMARK  118  A    between atoms: _286  and  _287
REMARK  119  A    between atoms: _286  and  _289
REMARK  120  A    between atoms: _289  and  _290
REMARK  121  A    between atoms: _290  and  _291
REMARK  122  A    between atoms: _291  and  _292
REMARK  123  A    between atoms: _301  and  _303
REMARK  124  A    between atoms: _303  and  _304
REMARK  125  A    between atoms: _303  and  _306
REMARK  126  A    between atoms: _306  and  _307
REMARK  127  A    between atoms: _310  and  _312
REMARK  128  A    between atoms: _312  and  _313
REMARK  129  A    between atoms: _312  and  _315
REMARK  130  A    between atoms: _315  and  _316
REMARK  131  A    between atoms: _319  and  _321
REMARK  132  A    between atoms: _321  and  _322
REMARK  133  A    between atoms: _321  and  _324
REMARK  134  A    between atoms: _324  and  _325
REMARK  135  A    between atoms: _328  and  _330
REMARK  136  A    between atoms: _330  and  _331
REMARK  137  A    between atoms: _330  and  _333
REMARK  138  A    between atoms: _333  and  _334
REMARK  139  A    between atoms: _337  and  _339
REMARK  140  A    between atoms: _339  and  _340
REMARK  141  A    between atoms: _342  and  _344
REMARK  142  A    between atoms: _344  and  _345
REMARK  143  A    between atoms: _348  and  _350
REMARK  144  A    between atoms: _350  and  _351
REMARK  145  A    between atoms: _350  and  _353
REMARK  146  A    between atoms: _353  and  _354
REMARK  147  A    between atoms: _357  and  _359
REMARK  148  A    between atoms: _359  and  _360
REMARK  149  A    between atoms: _359  and  _362
REMARK  150  A    between atoms: _362  and  _363
REMARK  151  A    between atoms: _366  and  _368
REMARK  152  A    between atoms: _368  and  _369
REMARK  153  A    between atoms: _368  and  _371
REMARK  154  A    between atoms: _371  and  _372
REMARK  155  A    between atoms: _375  and  _377
REMARK  156  A    between atoms: _377  and  _378
REMARK  157  A    between atoms: _377  and  _380
REMARK  158  A    between atoms: _383  and  _385
REMARK  159  A    between atoms: _385  and  _386
REMARK  160  A    between atoms: _385  and  _388
REMARK  161  A    between atoms: _388  and  _389
REMARK  162  A    between atoms: _389  and  _390
REMARK  163  A    between atoms: _390  and  _391
REMARK  164  A    between atoms: _391  and  _392
REMARK  165  A    between atoms: _396  and  _398
REMARK  166  A    between atoms: _398  and  _399
REMARK  167  A    between atoms: _398  and  _401
REMARK  168  A    between atoms: _401  and  _402
REMARK  169  A    between atoms: _402  and  _403
REMARK  170  A    between atoms: _405  and  _407
REMARK  171  A    between atoms: _407  and  _408
REMARK  172  A    between atoms: _407  and  _410
REMARK  173  A    between atoms: _410  and  _411
REMARK  174  A    between atoms: _414  and  _416
REMARK  175  A    between atoms: _416  and  _417
REMARK  176  A    between atoms: _419  and  _421
REMARK  177  A    between atoms: _421  and  _422
REMARK  178  A    between atoms: _424  and  _426
REMARK  179  A    between atoms: _426  and  _427
REMARK  180  A    between atoms: _426  and  _429
REMARK  181  A    between atoms: _429  and  _430
REMARK  182  A    between atoms: _433  and  _435
REMARK  183  A    between atoms: _435  and  _436
REMARK  184  A    between atoms: _438  and  _440
REMARK  185  A    between atoms: _440  and  _441
REMARK  186  A    between atoms: _443  and  _445
REMARK  187  A    between atoms: _445  and  _446
REMARK  188  A    between atoms: _445  and  _448
REMARK  189  A    between atoms: _448  and  _449
REMARK  190  A    between atoms: _455  and  _457
REMARK  191  A    between atoms: _457  and  _458
REMARK  192  A    between atoms: _457  and  _460
REMARK  193  A    between atoms: _460  and  _461
REMARK  194  A    between atoms: _464  and  _466
REMARK  195  A    between atoms: _466  and  _467
REMARK  196  A    between atoms: _466  and  _469
REMARK  197  A    between atoms: _469  and  _470
REMARK  198  A    between atoms: _473  and  _475
REMARK  199  A    between atoms: _475  and  _476
REMARK  200  A    between atoms: _475  and  _478
REMARK  201  A    between atoms: _478  and  _479
REMARK  202  A    between atoms: _483  and  _484
REMARK  203  A    between atoms: _489  and  _491
REMARK  204  A    between atoms: _491  and  _492
REMARK  205  A    between atoms: _491  and  _494
REMARK  206  A    between atoms: _497  and  _499
REMARK  207  A    between atoms: _499  and  _500
REMARK  208  A    between atoms: _499  and  _502
REMARK  209  A    between atoms: _502  and  _503
REMARK  210  A    between atoms: _508  and  _510
REMARK  211  A    between atoms: _510  and  _511
REMARK  212  A    between atoms: _510  and  _513
REMARK  213  A    between atoms: _513  and  _514
REMARK  214  A    between atoms: _517  and  _519
REMARK  215  A    between atoms: _519  and  _520
REMARK  216  A    between atoms: _519  and  _522
REMARK  217  A    between atoms: _522  and  _523
REMARK  218  A    between atoms: _526  and  _528
REMARK  219  A    between atoms: _528  and  _529
REMARK  220  A    between atoms: _531  and  _533
REMARK  221  A    between atoms: _533  and  _534
REMARK  222  A    between atoms: _533  and  _536
REMARK  223  A    between atoms: _536  and  _537
REMARK  224  A    between atoms: _537  and  _538
REMARK  225  A    between atoms: _538  and  _539
REMARK  226  A    between atoms: _548  and  _550
REMARK  227  A    between atoms: _550  and  _551
REMARK  228  A    between atoms: _550  and  _553
REMARK  229  A    between atoms: _553  and  _554
REMARK                            x       y       z     vdW  Elec       q    Type
REMARK                         _______ _______ _______ _____ _____    ______ ____
ROOT
ATOM      1  CA  VAL A   1      32.333  31.089   5.345  0.00  0.00    +0.133 C 
ENDROOT
BRANCH   1   2
ATOM      2  CB  VAL A   1      31.582  30.275   6.437  0.00  0.00    +0.023 C 
ATOM      3  CG2 VAL A   1      30.452  31.106   7.050  0.00  0.00    +0.002 C 
ATOM      4  CG1 VAL A   1      31.030  28.958   5.858  0.00  0.00    +0.002 C 
ENDBRANCH   1   2
BRANCH   1   5
ATOM      5  N   VAL A   1      31.480  31.323   4.199  0.00  0.00    -0.239 NA
ATOM      6  H   VAL A   1      31.305  30.539   3.538  0.00  0.00    +0.142 HD
ENDBRANCH   1   5
BRANCH   1   7
ATOM      7  C   VAL A   1      33.574  30.327   4.913  0.00  0.00    +0.224 C 
ATOM      8  O   VAL A   1      33.621  29.760   3.810  0.00  0.00    -0.287 OA
ENDBRANCH   1   7
TORSDOF 3
REMARK  Name = ../refined-set-2016/3mxe/3mxe_pocket.pdb
REMARK  229 active torsions:
REMARK  status: ('A' for Active; 'I' for Inactive)
REMARK    1  A    between atoms: _1  and  _3
REMARK    2  A    between atoms: _3  and  _4
REMARK    3  A    between atoms: _3  and  _6
REMARK    4  A    between atoms: _6  and  _7
REMARK    5  A    between atoms: _7  and  _8
REMARK    6  A    between atoms: _8  and  _9
REMARK    7  A    between atoms: _18  and  _20
REMARK    8  A    between atoms: _20  and  _21
REMARK    9  A    between atoms: _20  and  _23
REMARK   10  A    between atoms: _23  and  _24
REMARK   11  A    between atoms: _27  and  _29
REMARK   12  A    between atoms: _29  and  _30
REMARK   13  A    between atoms: _29  and  _32
REMARK   14  A    between atoms: _32  and  _33
REMARK   15  A    between atoms: _36  and  _38
REMARK   16  A    between atoms: _38  and  _39
REMARK   17  A    between atoms: _38  and  _41
REMARK   18  A    between atoms: _41  and  _42
REMARK   19  A    between atoms: _45  and  _47
REMARK   20  A    between atoms: _47  and  _48
REMARK   21  A    between atoms: _47  and  _50
REMARK   22  A    between atoms: _50  and  _51
REMARK   23  A    between atoms: _54  and  _56
REMARK   24  A    between atoms: _56  and  _57
REMARK   25  A    between atoms: _59  and  _61
REMARK   26  A    between atoms: _61  and  _62
REMARK   27  A    between atoms: _65  and  _67
REMARK   28  A    between atoms: _67  and  _68
REMARK   29  A    between atoms: _67  and  _70
REMARK   30  A    between atoms: _70  and  _71
REMARK   31  A    between atoms: _74  and  _76
REMARK   32  A    between atoms: _76  and  _77
REMARK   33  A    between atoms: _76  and  _79
REMARK   34  A    between atoms: _79  and  _80
REMARK   35  A    between atoms: _83  and  _85
REMARK   36  A    between atoms: _85  and  _86
REMARK   37  A    between atoms: _85  and  _88
REMARK   38  A    between atoms: _88  and  _89
REMARK   39  A    between atoms: _92  and  _94
REMARK   40  A    between atoms: _94  and  _95
REMARK   41  A    between atoms: _94  and  _97
REMARK   42  A    between atoms: _100  and  _102
REMARK   43  A    between atoms: _102  and  _103
REMARK   44  A    between atoms: _102  and  _105
REMARK   45  A    between atoms: _105  and  _106
REMARK   46  A    between atoms: _106  and  _107
REMARK   47  A    between atoms: _107  and  _108
REMARK   48  A    between atoms: _108  and  _109
REMARK   49  A    between atoms: _113  and  _115
REMARK   50  A    between atoms: _115  and  _116
REMARK   51  A    between atoms: _115  and  _118
REMARK   52  A    between atoms: _118  and  _119
REMARK   53  A    between atoms: _119  and  _120
REMARK   54  A    between atoms: _122  and  _124
REMARK   55  A    between atoms: _124  and  _125
REMARK   56  A    between atoms: _124  and  _127
REMARK   57  A    between atoms: _127  and  _128
REMARK   58  A    between atoms: _131  and  _133
REMARK   59  A    between atoms: _133  and  _134
REMARK   60  A    between atoms: _136  and  _138
REMARK   61  A    between atoms: _138  and  _139
REMARK   62  A    between atoms: _141  and  _143
REMARK   63  A    between atoms: _143  and  _144
REMARK   64  A    between atoms: _143  and  _146
REMARK   65  A    between atoms: _146  and  _147
REMARK   66  A    between atoms: _150  and  _152
REMARK   67  A    between atoms: _152  and  _153
REMARK   68  A    between atoms: _155  and  _157
REMARK   69  A    between atoms: _157  and  _158
REMARK   70  A    between atoms: _160  and  _162
REMARK   71  A    between atoms: _162  and  _163
REMARK   72  A    between atoms: _162  and  _165
REMARK   73  A    between atoms: _165  and  _166
REMARK   74  A    between atoms: _172  and  _174
REMARK   75  A    between atoms: _174  and  _175
REMARK   76  A    between atoms: _174  and  _177
REMARK   77  A    between atoms: _177  and  _178
REMARK   78  A    between atoms: _181  and  _183
REMARK   79  A    between atoms: _183  and  _184
REMARK   80  A    between atoms: _183  and  _186
REMARK   81  A    between atoms: _189  and  _191
REMARK   82  A    between atoms: _191  and  _192
REMARK   83  A    between atoms: _191  and  _194
REMARK   84  A    between atoms: _194  and  _195
REMARK   85  A    between atoms: _198  and  _200
REMARK   86  A    between atoms: _200  and  _201
REMARK   87  A    between atoms: _200  and  _203
REMARK   88  A    between atoms: _203  and  _204
REMARK   89  A    between atoms: _208  and  _209
REMARK   90  A    between atoms: _214  and  _216
REMARK   91  A    between atoms: _216  and  _217
REMARK   92  A    between atoms: _216  and  _219
REMARK   93  A    between atoms: _222  and  _224
REMARK   94  A    between atoms: _224  and  _225
REMARK   95  A    between atoms: _224  and  _227
REMARK   96  A    between atoms: _227  and  _228
REMARK   97  A    between atoms: _233  and  _235
REMARK   98  A    between atoms: _235  and  _236
REMARK   99  A    between atoms: _235  and  _238
REMARK  100  A    between atoms: _238  and  _239
REMARK  101  A    between atoms: _242  and  _244
REMARK  102  A    between atoms: _244  and  _245
REMARK  103  A    between atoms: _244  and  _247
REMARK  104  A    between atoms: _247  and  _248
REMARK  105  A    between atoms: _251  and  _253
REMARK  106  A    between atoms: _253  and  _254
REMARK  107  A    between atoms: _256  and  _258
REMARK  108  A    between atoms: _258  and  _259
REMARK  109  A    between atoms: _258  and  _261
REMARK  110  A    between atoms: _261  and  _262
REMARK  111  A    between atoms: _262  and  _263
REMARK  112  A    between atoms: _263  and  _264
REMARK  113  A    between atoms: _273  and  _275
REMARK  114  A    between atoms: _275  and  _276
REMARK  115  A    between atoms: _275  and  _278
REMARK  116  A    between atoms: _278  and  _279
REMARK  117  A    between atoms: _284  and  _286
REMARK  118  A    between atoms: _286  and  _287
REMARK  119  A    between atoms: _286  and  _289
REMARK  120  A    between atoms: _289  and  _290
REMARK  121  A    between atoms: _290  and  _291
REMARK  122  A    between atoms: _291  and  _292
REMARK  123  A    between atoms: _301  and  _303
REMARK  124  A    between atoms: _303  and  _304
REMARK  125  A    between atoms: _303  and  _306
REMARK  126  A    between atoms: _306  and  _307
REMARK  127  A    between atoms: _310  and  _312
REMARK  128  A    between atoms: _312  and  _313
REMARK  129  A    between atoms: _312  and  _315
REMARK  130  A    between atoms: _315  and  _316
REMARK  131  A    between atoms: _319  and  _321
REMARK  132  A    between atoms: _321  and  _322
REMARK  133  A    between atoms: _321  and  _324
REMARK  134  A    between atoms: _324  and  _325
REMARK  135  A    between atoms: _328  and  _330
REMARK  136  A    between atoms: _330  and  _331
REMARK  137  A    between atoms: _330  and  _333
REMARK  138  A    between atoms: _333  and  _334
REMARK  139  A    between atoms: _337  and  _339
REMARK  140  A    between atoms: _339  and  _340
REMARK  141  A    between atoms: _342  and  _344
REMARK  142  A    between atoms: _344  and  _345
REMARK  143  A    between atoms: _348  and  _350
REMARK  144  A    between atoms: _350  and  _351
REMARK  145  A    between atoms: _350  and  _353
REMARK  146  A    between atoms: _353  and  _354
REMARK  147  A    between atoms: _357  and  _359
REMARK  148  A    between atoms: _359  and  _360
REMARK  149  A    between atoms: _359  and  _362
REMARK  150  A    between atoms: _362  and  _363
REMARK  151  A    between atoms: _366  and  _368
REMARK  152  A    between atoms: _368  and  _369
REMARK  153  A    between atoms: _368  and  _371
REMARK  154  A    between atoms: _371  and  _372
REMARK  155  A    between atoms: _375  and  _377
REMARK  156  A    between atoms: _377  and  _378
REMARK  157  A    between atoms: _377  and  _380
REMARK  158  A    between atoms: _383  and  _385
REMARK  159  A    between atoms: _385  and  _386
REMARK  160  A    between atoms: _385  and  _388
REMARK  161  A    between atoms: _388  and  _389
REMARK  162  A    between atoms: _389  and  _390
REMARK  163  A    between atoms: _390  and  _391
REMARK  164  A    between atoms: _391  and  _392
REMARK  165  A    between atoms: _396  and  _398
REMARK  166  A    between atoms: _398  and  _399
REMARK  167  A    between atoms: _398  and  _401
REMARK  168  A    between atoms: _401  and  _402
REMARK  169  A    between atoms: _402  and  _403
REMARK  170  A    between atoms: _405  and  _407
REMARK  171  A    between atoms: _407  and  _408
REMARK  172  A    between atoms: _407  and  _410
REMARK  173  A    between atoms: _410  and  _411
REMARK  174  A    between atoms: _414  and  _416
REMARK  175  A    between atoms: _416  and  _417
REMARK  176  A    between atoms: _419  and  _421
REMARK  177  A    between atoms: _421  and  _422
REMARK  178  A    between atoms: _424  and  _426
REMARK  179  A    between atoms: _426  and  _427
REMARK  180  A    between atoms: _426  and  _429
REMARK  181  A    between atoms: _429  and  _430
REMARK  182  A    between atoms: _433  and  _435
REMARK  183  A    between atoms: _435  and  _436
REMARK  184  A    between atoms: _438  and  _440
REMARK  185  A    between atoms: _440  and  _441
REMARK  186  A    between atoms: _443  and  _445
REMARK  187  A    between atoms: _445  and  _446
REMARK  188  A    between atoms: _445  and  _448
REMARK  189  A    between atoms: _448  and  _449
REMARK  190  A    between atoms: _455  and  _457
REMARK  191  A    between atoms: _457  and  _458
REMARK  192  A    between atoms: _457  and  _460
REMARK  193  A    between atoms: _460  and  _461
REMARK  194  A    between atoms: _464  and  _466
REMARK  195  A    between atoms: _466  and  _467
REMARK  196  A    between atoms: _466  and  _469
REMARK  197  A    between atoms: _469  and  _470
REMARK  198  A    between atoms: _473  and  _475
REMARK  199  A    between atoms: _475  and  _476
REMARK  200  A    between atoms: _475  and  _478
REMARK  201  A    between atoms: _478  and  _479
REMARK  202  A    between atoms: _483  and  _484
REMARK  203  A    between atoms: _489  and  _491
REMARK  204  A    between atoms: _491  and  _492
REMARK  205  A    between atoms: _491  and  _494
REMARK  206  A    between atoms: _497  and  _499
REMARK  207  A    between atoms: _499  and  _500
REMARK  208  A    between atoms: _499  and  _502
REMARK  209  A    between atoms: _502  and  _503
REMARK  210  A    between atoms: _508  and  _510
REMARK  211  A    between atoms: _510  and  _511
REMARK  212  A    between atoms: _510  and  _513
REMARK  213  A    between atoms: _513  and  _514
REMARK  214  A    between atoms: _517  and  _519
REMARK  215  A    between atoms: _519  and  _520
REMARK  216  A    between atoms: _519  and  _522
REMARK  217  A    between atoms: _522  and  _523
REMARK  218  A    between atoms: _526  and  _528
REMARK  219  A    between atoms: _528  and  _529
REMARK  220  A    between atoms: _531  and  _533
REMARK  221  A    between atoms: _533  and  _534
REMARK  222  A    between atoms: _533  and  _536
REMARK  223  A    between atoms: _536  and  _537
REMARK  224  A    between atoms: _537  and  _538
REMARK  225  A    between atoms: _538  and  _539
REMARK  226  A    between atoms: _548  and  _550
REMARK  227  A    between atoms: _550  and  _551
REMARK  228  A    between atoms: _550  and  _553
REMARK  229  A    between atoms: _553  and  _554
REMARK                            x       y       z     vdW  Elec       q    Type
REMARK                         _______ _______ _______ _____ _____    ______ ____
ROOT
ATOM      1  CA  LEU A   1      33.305  27.788  10.214  0.00  0.00    +0.133 C 
ENDROOT
BRANCH   1   2
ATOM      2  N   LEU A   1      33.591  26.957  11.350  0.00  0.00    -0.239 NA
ATOM      3  H   LEU A   1      32.860  26.832  12.079  0.00  0.00    +0.142 HD
ENDBRANCH   1   2
BRANCH   1   4
ATOM      4  C   LEU A   1      33.509  29.234  10.649  0.00  0.00    +0.224 C 
ATOM      5  O   LEU A   1      33.053  29.637  11.722  0.00  0.00    -0.287 OA
ENDBRANCH   1   4
BRANCH   1   6
ATOM      6  CB  LEU A   1      31.862  27.561   9.739  0.00  0.00    +0.025 C 
BRANCH   6   7
ATOM      7  CG  LEU A   1      31.490  26.110   9.404  0.00  0.00    +0.002 C 
ATOM      8  CD2 LEU A   1      30.011  26.008   8.991  0.00  0.00    +0.000 C 
ATOM      9  CD1 LEU A   1      32.411  25.567   8.298  0.00  0.00    +0.000 C 
ENDBRANCH   6   7
ENDBRANCH   1   6
TORSDOF 4
REMARK  Name = ../refined-set-2016/3mxe/3mxe_pocket.pdb
REMARK  229 active torsions:
REMARK  status: ('A' for Active; 'I' for Inactive)
REMARK    1  A    between atoms: _1  and  _3
REMARK    2  A    between atoms: _3  and  _4
REMARK    3  A    between atoms: _3  and  _6
REMARK    4  A    between atoms: _6  and  _7
REMARK    5  A    between atoms: _7  and  _8
REMARK    6  A    between atoms: _8  and  _9
REMARK    7  A    between atoms: _18  and  _20
REMARK    8  A    between atoms: _20  and  _21
REMARK    9  A    between atoms: _20  and  _23
REMARK   10  A    between atoms: _23  and  _24
REMARK   11  A    between atoms: _27  and  _29
REMARK   12  A    between atoms: _29  and  _30
REMARK   13  A    between atoms: _29  and  _32
REMARK   14  A    between atoms: _32  and  _33
REMARK   15  A    between atoms: _36  and  _38
REMARK   16  A    between atoms: _38  and  _39
REMARK   17  A    between atoms: _38  and  _41
REMARK   18  A    between atoms: _41  and  _42
REMARK   19  A    between atoms: _45  and  _47
REMARK   20  A    between atoms: _47  and  _48
REMARK   21  A    between atoms: _47  and  _50
REMARK   22  A    between atoms: _50  and  _51
REMARK   23  A    between atoms: _54  and  _56
REMARK   24  A    between atoms: _56  and  _57
REMARK   25  A    between atoms: _59  and  _61
REMARK   26  A    between atoms: _61  and  _62
REMARK   27  A    between atoms: _65  and  _67
REMARK   28  A    between atoms: _67  and  _68
REMARK   29  A    between atoms: _67  and  _70
REMARK   30  A    between atoms: _70  and  _71
REMARK   31  A    between atoms: _74  and  _76
REMARK   32  A    between atoms: _76  and  _77
REMARK   33  A    between atoms: _76  and  _79
REMARK   34  A    between atoms: _79  and  _80
REMARK   35  A    between atoms: _83  and  _85
REMARK   36  A    between atoms: _85  and  _86
REMARK   37  A    between atoms: _85  and  _88
REMARK   38  A    between atoms: _88  and  _89
REMARK   39  A    between atoms: _92  and  _94
REMARK   40  A    between atoms: _94  and  _95
REMARK   41  A    between atoms: _94  and  _97
REMARK   42  A    between atoms: _100  and  _102
REMARK   43  A    between atoms: _102  and  _103
REMARK   44  A    between atoms: _102  and  _105
REMARK   45  A    between atoms: _105  and  _106
REMARK   46  A    between atoms: _106  and  _107
REMARK   47  A    between atoms: _107  and  _108
REMARK   48  A    between atoms: _108  and  _109
REMARK   49  A    between atoms: _113  and  _115
REMARK   50  A    between atoms: _115  and  _116
REMARK   51  A    between atoms: _115  and  _118
REMARK   52  A    between atoms: _118  and  _119
REMARK   53  A    between atoms: _119  and  _120
REMARK   54  A    between atoms: _122  and  _124
REMARK   55  A    between atoms: _124  and  _125
REMARK   56  A    between atoms: _124  and  _127
REMARK   57  A    between atoms: _127  and  _128
REMARK   58  A    between atoms: _131  and  _133
REMARK   59  A    between atoms: _133  and  _134
REMARK   60  A    between atoms: _136  and  _138
REMARK   61  A    between atoms: _138  and  _139
REMARK   62  A    between atoms: _141  and  _143
REMARK   63  A    between atoms: _143  and  _144
REMARK   64  A    between atoms: _143  and  _146
REMARK   65  A    between atoms: _146  and  _147
REMARK   66  A    between atoms: _150  and  _152
REMARK   67  A    between atoms: _152  and  _153
REMARK   68  A    between atoms: _155  and  _157
REMARK   69  A    between atoms: _157  and  _158
REMARK   70  A    between atoms: _160  and  _162
REMARK   71  A    between atoms: _162  and  _163
REMARK   72  A    between atoms: _162  and  _165
REMARK   73  A    between atoms: _165  and  _166
REMARK   74  A    between atoms: _172  and  _174
REMARK   75  A    between atoms: _174  and  _175
REMARK   76  A    between atoms: _174  and  _177
REMARK   77  A    between atoms: _177  and  _178
REMARK   78  A    between atoms: _181  and  _183
REMARK   79  A    between atoms: _183  and  _184
REMARK   80  A    between atoms: _183  and  _186
REMARK   81  A    between atoms: _189  and  _191
REMARK   82  A    between atoms: _191  and  _192
REMARK   83  A    between atoms: _191  and  _194
REMARK   84  A    between atoms: _194  and  _195
REMARK   85  A    between atoms: _198  and  _200
REMARK   86  A    between atoms: _200  and  _201
REMARK   87  A    between atoms: _200  and  _203
REMARK   88  A    between atoms: _203  and  _204
REMARK   89  A    between atoms: _208  and  _209
REMARK   90  A    between atoms: _214  and  _216
REMARK   91  A    between atoms: _216  and  _217
REMARK   92  A    between atoms: _216  and  _219
REMARK   93  A    between atoms: _222  and  _224
REMARK   94  A    between atoms: _224  and  _225
REMARK   95  A    between atoms: _224  and  _227
REMARK   96  A    between atoms: _227  and  _228
REMARK   97  A    between atoms: _233  and  _235
REMARK   98  A    between atoms: _235  and  _236
REMARK   99  A    between atoms: _235  and  _238
REMARK  100  A    between atoms: _238  and  _239
REMARK  101  A    between atoms: _242  and  _244
REMARK  102  A    between atoms: _244  and  _245
REMARK  103  A    between atoms: _244  and  _247
REMARK  104  A    between atoms: _247  and  _248
REMARK  105  A    between atoms: _251  and  _253
REMARK  106  A    between atoms: _253  and  _254
REMARK  107  A    between atoms: _256  and  _258
REMARK  108  A    between atoms: _258  and  _259
REMARK  109  A    between atoms: _258  and  _261
REMARK  110  A    between atoms: _261  and  _262
REMARK  111  A    between atoms: _262  and  _263
REMARK  112  A    between atoms: _263  and  _264
REMARK  113  A    between atoms: _273  and  _275
REMARK  114  A    between atoms: _275  and  _276
REMARK  115  A    between atoms: _275  and  _278
REMARK  116  A    between atoms: _278  and  _279
REMARK  117  A    between atoms: _284  and  _286
REMARK  118  A    between atoms: _286  and  _287
REMARK  119  A    between atoms: _286  and  _289
REMARK  120  A    between atoms: _289  and  _290
REMARK  121  A    between atoms: _290  and  _291
REMARK  122  A    between atoms: _291  and  _292
REMARK  123  A    between atoms: _301  and  _303
REMARK  124  A    between atoms: _303  and  _304
REMARK  125  A    between atoms: _303  and  _306
REMARK  126  A    between atoms: _306  and  _307
REMARK  127  A    between atoms: _310  and  _312
REMARK  128  A    between atoms: _312  and  _313
REMARK  129  A    between atoms: _312  and  _315
REMARK  130  A    between atoms: _315  and  _316
REMARK  131  A    between atoms: _319  and  _321
REMARK  132  A    between atoms: _321  and  _322
REMARK  133  A    between atoms: _321  and  _324
REMARK  134  A    between atoms: _324  and  _325
REMARK  135  A    between atoms: _328  and  _330
REMARK  136  A    between atoms: _330  and  _331
REMARK  137  A    between atoms: _330  and  _333
REMARK  138  A    between atoms: _333  and  _334
REMARK  139  A    between atoms: _337  and  _339
REMARK  140  A    between atoms: _339  and  _340
REMARK  141  A    between atoms: _342  and  _344
REMARK  142  A    between atoms: _344  and  _345
REMARK  143  A    between atoms: _348  and  _350
REMARK  144  A    between atoms: _350  and  _351
REMARK  145  A    between atoms: _350  and  _353
REMARK  146  A    between atoms: _353  and  _354
REMARK  147  A    between atoms: _357  and  _359
REMARK  148  A    between atoms: _359  and  _360
REMARK  149  A    between atoms: _359  and  _362
REMARK  150  A    between atoms: _362  and  _363
REMARK  151  A    between atoms: _366  and  _368
REMARK  152  A    between atoms: _368  and  _369
REMARK  153  A    between atoms: _368  and  _371
REMARK  154  A    between atoms: _371  and  _372
REMARK  155  A    between atoms: _375  and  _377
REMARK  156  A    between atoms: _377  and  _378
REMARK  157  A    between atoms: _377  and  _380
REMARK  158  A    between atoms: _383  and  _385
REMARK  159  A    between atoms: _385  and  _386
REMARK  160  A    between atoms: _385  and  _388
REMARK  161  A    between atoms: _388  and  _389
REMARK  162  A    between atoms: _389  and  _390
REMARK  163  A    between atoms: _390  and  _391
REMARK  164  A    between atoms: _391  and  _392
REMARK  165  A    between atoms: _396  and  _398
REMARK  166  A    between atoms: _398  and  _399
REMARK  167  A    between atoms: _398  and  _401
REMARK  168  A    between atoms: _401  and  _402
REMARK  169  A    between atoms: _402  and  _403
REMARK  170  A    between atoms: _405  and  _407
REMARK  171  A    between atoms: _407  and  _408
REMARK  172  A    between atoms: _407  and  _410
REMARK  173  A    between atoms: _410  and  _411
REMARK  174  A    between atoms: _414  and  _416
REMARK  175  A    between atoms: _416  and  _417
REMARK  176  A    between atoms: _419  and  _421
REMARK  177  A    between atoms: _421  and  _422
REMARK  178  A    between atoms: _424  and  _426
REMARK  179  A    between atoms: _426  and  _427
REMARK  180  A    between atoms: _426  and  _429
REMARK  181  A    between atoms: _429  and  _430
REMARK  182  A    between atoms: _433  and  _435
REMARK  183  A    between atoms: _435  and  _436
REMARK  184  A    between atoms: _438  and  _440
REMARK  185  A    between atoms: _440  and  _441
REMARK  186  A    between atoms: _443  and  _445
REMARK  187  A    between atoms: _445  and  _446
REMARK  188  A    between atoms: _445  and  _448
REMARK  189  A    between atoms: _448  and  _449
REMARK  190  A    between atoms: _455  and  _457
REMARK  191  A    between atoms: _457  and  _458
REMARK  192  A    between atoms: _457  and  _460
REMARK  193  A    between atoms: _460  and  _461
REMARK  194  A    between atoms: _464  and  _466
REMARK  195  A    between atoms: _466  and  _467
REMARK  196  A    between atoms: _466  and  _469
REMARK  197  A    between atoms: _469  and  _470
REMARK  198  A    between atoms: _473  and  _475
REMARK  199  A    between atoms: _475  and  _476
REMARK  200  A    between atoms: _475  and  _478
REMARK  201  A    between atoms: _478  and  _479
REMARK  202  A    between atoms: _483  and  _484
REMARK  203  A    between atoms: _489  and  _491
REMARK  204  A    between atoms: _491  and  _492
REMARK  205  A    between atoms: _491  and  _494
REMARK  206  A    between atoms: _497  and  _499
REMARK  207  A    between atoms: _499  and  _500
REMARK  208  A    between atoms: _499  and  _502
REMARK  209  A    between atoms: _502  and  _503
REMARK  210  A    between atoms: _508  and  _510
REMARK  211  A    between atoms: _510  and  _511
REMARK  212  A    between atoms: _510  and  _513
REMARK  213  A    between atoms: _513  and  _514
REMARK  214  A    between atoms: _517  and  _519
REMARK  215  A    between atoms: _519  and  _520
REMARK  216  A    between atoms: _519  and  _522
REMARK  217  A    between atoms: _522  and  _523
REMARK  218  A    between atoms: _526  and  _528
REMARK  219  A    between atoms: _528  and  _529
REMARK  220  A    between atoms: _531  and  _533
REMARK  221  A    between atoms: _533  and  _534
REMARK  222  A    between atoms: _533  and  _536
REMARK  223  A    between atoms: _536  and  _537
REMARK  224  A    between atoms: _537  and  _538
REMARK  225  A    between atoms: _538  and  _539
REMARK  226  A    between atoms: _548  and  _550
REMARK  227  A    between atoms: _550  and  _551
REMARK  228  A    between atoms: _550  and  _553
REMARK  229  A    between atoms: _553  and  _554
REMARK                            x       y       z     vdW  Elec       q    Type
REMARK                         _______ _______ _______ _____ _____    ______ ____
ROOT
ATOM      1  C   ILE A   5      28.588  28.652  18.047  0.00  0.00    +0.241 C 
ATOM      2  N   ILE A   6      28.354  27.932  19.142  0.00  0.00    -0.297 N 
ATOM      3  H   ILE A   6      27.796  28.355  19.911  0.00  0.00    +0.150 HD
ATOM      4  O   ILE A   5      29.329  28.276  17.141  0.00  0.00    -0.273 OA
ENDROOT
BRANCH   2   5
ATOM      5  CA  ILE A   6      28.848  26.581  19.300  0.00  0.00    +0.149 C 
BRANCH   5   6
ATOM      6  C   ILE A   6      27.722  25.636  18.927  0.00  0.00    +0.241 C 
ATOM      7  O   ILE A   6      26.692  25.580  19.618  0.00  0.00    -0.273 OA
ATOM      8  N   GLY A   7      27.929  24.876  17.857  0.00  0.00    -0.295 N 
ATOM      9  H   GLY A   7      28.857  24.900  17.389  0.00  0.00    +0.150 HD
BRANCH   8  10
ATOM     10  CA  GLY A   7      26.886  24.011  17.325  0.00  0.00    +0.176 C 
BRANCH  10  11
ATOM     11  C   GLY A   7      27.027  22.575  17.766  0.00  0.00    +0.243 C 
ATOM     12  O   GLY A   7      27.937  22.210  18.513  0.00  0.00    -0.273 OA
ATOM     13  N   ARG A   8      26.119  21.744  17.286  0.00  0.00    -0.297 N 
ATOM     14  H   ARG A   8      25.443  22.087  16.574  0.00  0.00    +0.150 HD
BRANCH  13  15
ATOM     15  CA  ARG A   8      26.042  20.364  17.728  0.00  0.00    +0.149 C 
BRANCH  15  16
ATOM     16  C   ARG A   8      27.308  19.546  17.459  0.00  0.00    +0.241 C 
ATOM     17  O   ARG A   8      27.592  18.623  18.213  0.00  0.00    -0.273 OA
ATOM     18  N   ASN A   9      28.077  19.879  16.424  0.00  0.00    -0.298 N 
ATOM     19  H   ASN A   9      27.812  20.680  15.816  0.00  0.00    +0.150 HD
BRANCH  18  20
ATOM     20  CA  ASN A   9      29.301  19.113  16.140  0.00  0.00    +0.146 C 
BRANCH  20  21
ATOM     21  C   ASN A   9      30.257  19.114  17.335  0.00  0.00    +0.227 C 
ATOM     22  O   ASN A   9      30.917  18.103  17.620  0.00  0.00    -0.286 OA
ENDBRANCH  20  21
BRANCH  20  23
ATOM     23  CB  ASN A   9      29.997  19.618  14.867  0.00  0.00    +0.112 C 
BRANCH  23  24
ATOM     24  CG  ASN A   9      30.632  20.974  15.049  0.00  0.00    +0.222 C 
ATOM     25  OD1 ASN A   9      29.984  21.906  15.528  0.00  0.00    -0.275 OA
ATOM     26  ND2 ASN A   9      31.920  21.095  14.676  0.00  0.00    -0.329 N 
ATOM     27 HD21 ASN A   9      32.410  22.005  14.788  0.00  0.00    +0.145 HD
ATOM     28 HD22 ASN A   9      32.425  20.278  14.276  0.00  0.00    +0.145 HD
ENDBRANCH  23  24
ENDBRANCH  20  23
ENDBRANCH  18  20
ENDBRANCH  15  16
BRANCH  15  29
ATOM     29  CB  ARG A   8      24.828  19.681  17.118  0.00  0.00    +0.033 C 
BRANCH  29  30
ATOM     30  CG  ARG A   8      23.515  20.241  17.641  0.00  0.00    +0.045 C 
BRANCH  30  31
ATOM     31  CD  ARG A   8      22.323  19.426  17.159  0.00  0.00    +0.174 C 
BRANCH  31  32
ATOM     32  NE  ARG A   8      22.212  19.412  15.699  0.00  0.00    -0.265 N 
ATOM     33  HE  ARG A   8      21.764  20.235  15.247  0.00  0.00    +0.259 HD
ATOM     34  CZ  ARG A   8      22.637  18.433  14.900  0.00  0.00    +0.342 C 
ATOM     35  NH2 ARG A   8      23.212  17.342  15.380  0.00  0.00    -0.292 N 
ATOM     36 HH21 ARG A   8      23.343  17.231  16.406  0.00  0.00    +0.255 HD
ATOM     37 HH22 ARG A   8      23.533  16.595  14.731  0.00  0.00    +0.255 HD
ATOM     38  NH1 ARG A   8      22.482  18.551  13.585  0.00  0.00    -0.292 N 
ATOM     39 HH11 ARG A   8      22.033  19.401  13.189  0.00  0.00    +0.255 HD
ATOM     40 HH12 ARG A   8      22.810  17.793  12.953  0.00  0.00    +0.255 HD
ENDBRANCH  31  32
ENDBRANCH  30  31
ENDBRANCH  29  30
ENDBRANCH  15  29
ENDBRANCH  13  15
ENDBRANCH  10  11
ENDBRANCH   8  10
ENDBRANCH   5   6
BRANCH   5  41
ATOM     41  CB  ILE A   6      29.273  26.261  20.742  0.00  0.00    +0.027 C 
ATOM     42  CG2 ILE A   6      29.813  24.818  20.818  0.00  0.00    +0.002 C 
BRANCH  41  43
ATOM     43  CG1 ILE A   6      30.308  27.274  21.262  0.00  0.00    +0.002 C 
ATOM     44  CD1 ILE A   6      31.497  27.478  20.339  0.00  0.00    +0.000 C 
ENDBRANCH  41  43
ENDBRANCH   5  41
ENDBRANCH   2   5
BRANCH   1  45
ATOM     45  CA  ILE A   5      27.886  30.006  17.995  0.00  0.00    +0.149 C 
BRANCH  45  48
ATOM     46  C   ASN A   4      28.950  32.194  18.344  0.00  0.00    +0.241 C 
ATOM     47  O   ASN A   4      28.343  32.380  19.385  0.00  0.00    -0.273 OA
ATOM     48  N   ILE A   5      28.791  31.100  17.597  0.00  0.00    -0.297 N 
ATOM     49  H   ILE A   5      29.322  31.016  16.707  0.00  0.00    +0.150 HD
BRANCH  46  50
ATOM     50  CA  ASN A   4      29.922  33.259  17.860  0.00  0.00    +0.158 C 
BRANCH  50  52
ATOM     51  C   VAL A   3      28.172  34.702  16.988  0.00  0.00    +0.241 C 
ATOM     52  N   ASN A   4      29.213  34.551  17.804  0.00  0.00    -0.297 N 
ATOM     53  H   ASN A   4      29.526  35.343  18.401  0.00  0.00    +0.150 HD
ATOM     54  O   VAL A   3      27.896  33.874  16.121  0.00  0.00    -0.273 OA
BRANCH  51  55
ATOM     55  CA  VAL A   3      27.306  35.957  17.141  0.00  0.00    +0.149 C 
BRANCH  55  58
ATOM     56  C   PRO A   2      26.519  37.592  15.467  0.00  0.00    +0.241 C 
ATOM     57  O   PRO A   2      26.727  38.577  16.159  0.00  0.00    -0.273 OA
ATOM     58  N   VAL A   3      26.811  36.341  15.827  0.00  0.00    -0.297 N 
ATOM     59  H   VAL A   3      26.676  35.589  15.121  0.00  0.00    +0.150 HD
BRANCH  56  62
ATOM     60  C   THR A   1      27.421  36.422  12.744  0.00  0.00    +0.244 C 
ATOM     61  N   PRO A   2      26.164  36.655  13.158  0.00  0.00    -0.272 N 
ATOM     62  CA  PRO A   2      25.901  37.761  14.084  0.00  0.00    +0.152 C 
ATOM     63  CB  PRO A   2      24.365  37.796  14.174  0.00  0.00    +0.031 C 
ATOM     64  CG  PRO A   2      23.927  36.428  13.806  0.00  0.00    +0.024 C 
ATOM     65  CD  PRO A   2      24.917  35.947  12.786  0.00  0.00    +0.094 C 
ATOM     66  O   THR A   1      28.372  37.128  13.105  0.00  0.00    -0.273 OA
BRANCH  60  67
ATOM     67  CA  THR A   1      27.652  35.224  11.800  0.00  0.00    +0.172 C 
BRANCH  67  68
ATOM     68  CB  THR A   1      28.040  33.944  12.607  0.00  0.00    +0.135 C 
ATOM     69  CG2 THR A   1      29.378  34.106  13.327  0.00  0.00    +0.034 C 
BRANCH  68  70
ATOM     70  OG1 THR A   1      27.014  33.621  13.548  0.00  0.00    -0.383 OA
ATOM     71  HG1 THR A   1      26.895  34.376  14.177  0.00  0.00    +0.210 HD
ENDBRANCH  68  70
ENDBRANCH  67  68
BRANCH  67  72
ATOM     72  N   THR A   1      28.694  35.540  10.823  0.00  0.00    -0.236 NA
ATOM     73  H   THR A   1      29.619  35.071  10.903  0.00  0.00    +0.142 HD
ENDBRANCH  67  72
ENDBRANCH  60  67
ENDBRANCH  56  62
ENDBRANCH  55  58
BRANCH  55  74
ATOM     74  CB  VAL A   3      26.124  35.603  18.070  0.00  0.00    +0.027 C 
ATOM     75  CG2 VAL A   3      26.617  35.257  19.468  0.00  0.00    +0.002 C 
ATOM     76  CG1 VAL A   3      25.112  36.747  18.112  0.00  0.00    +0.002 C 
ENDBRANCH  55  74
ENDBRANCH  51  55
ENDBRANCH  50  52
BRANCH  50  77
ATOM     77  CB  ASN A   4      31.082  33.298  18.846  0.00  0.00    +0.114 C 
BRANCH  77  78
ATOM     78  CG  ASN A   4      32.209  34.199  18.404  0.00  0.00    +0.222 C 
ATOM     79  ND2 ASN A   4      32.833  34.860  19.375  0.00  0.00    -0.329 N 
ATOM     80 HD21 ASN A   4      32.527  34.745  20.362  0.00  0.00    +0.145 HD
ATOM     81 HD22 ASN A   4      33.627  35.491  19.147  0.00  0.00    +0.145 HD
ATOM     82  OD1 ASN A   4      32.531  34.297  17.210  0.00  0.00    -0.275 OA
ENDBRANCH  77  78
ENDBRANCH  50  77
ENDBRANCH  46  50
ENDBRANCH  45  48
BRANCH  45  83
ATOM     83  CB  ILE A   5      26.574  29.904  17.132  0.00  0.00    +0.027 C 
ATOM     84  CG2 ILE A   5      25.753  31.206  17.260  0.00  0.00    +0.002 C 
BRANCH  83  85
ATOM     85  CG1 ILE A   5      26.849  29.515  15.665  0.00  0.00    +0.002 C 
ATOM     86  CD1 ILE A   5      25.581  29.422  14.766  0.00  0.00    +0.000 C 
ENDBRANCH  83  85
ENDBRANCH  45  83
ENDBRANCH   1  45
TORSDOF 32
REMARK  Name = ../refined-set-2016/3mxe/3mxe_pocket.pdb
REMARK  229 active torsions:
REMARK  status: ('A' for Active; 'I' for Inactive)
REMARK    1  A    between atoms: _1  and  _3
REMARK    2  A    between atoms: _3  and  _4
REMARK    3  A    between atoms: _3  and  _6
REMARK    4  A    between atoms: _6  and  _7
REMARK    5  A    between atoms: _7  and  _8
REMARK    6  A    between atoms: _8  and  _9
REMARK    7  A    between atoms: _18  and  _20
REMARK    8  A    between atoms: _20  and  _21
REMARK    9  A    between atoms: _20  and  _23
REMARK   10  A    between atoms: _23  and  _24
REMARK   11  A    between atoms: _27  and  _29
REMARK   12  A    between atoms: _29  and  _30
REMARK   13  A    between atoms: _29  and  _32
REMARK   14  A    between atoms: _32  and  _33
REMARK   15  A    between atoms: _36  and  _38
REMARK   16  A    between atoms: _38  and  _39
REMARK   17  A    between atoms: _38  and  _41
REMARK   18  A    between atoms: _41  and  _42
REMARK   19  A    between atoms: _45  and  _47
REMARK   20  A    between atoms: _47  and  _48
REMARK   21  A    between atoms: _47  and  _50
REMARK   22  A    between atoms: _50  and  _51
REMARK   23  A    between atoms: _54  and  _56
REMARK   24  A    between atoms: _56  and  _57
REMARK   25  A    between atoms: _59  and  _61
REMARK   26  A    between atoms: _61  and  _62
REMARK   27  A    between atoms: _65  and  _67
REMARK   28  A    between atoms: _67  and  _68
REMARK   29  A    between atoms: _67  and  _70
REMARK   30  A    between atoms: _70  and  _71
REMARK   31  A    between atoms: _74  and  _76
REMARK   32  A    between atoms: _76  and  _77
REMARK   33  A    between atoms: _76  and  _79
REMARK   34  A    between atoms: _79  and  _80
REMARK   35  A    between atoms: _83  and  _85
REMARK   36  A    between atoms: _85  and  _86
REMARK   37  A    between atoms: _85  and  _88
REMARK   38  A    between atoms: _88  and  _89
REMARK   39  A    between atoms: _92  and  _94
REMARK   40  A    between atoms: _94  and  _95
REMARK   41  A    between atoms: _94  and  _97
REMARK   42  A    between atoms: _100  and  _102
REMARK   43  A    between atoms: _102  and  _103
REMARK   44  A    between atoms: _102  and  _105
REMARK   45  A    between atoms: _105  and  _106
REMARK   46  A    between atoms: _106  and  _107
REMARK   47  A    between atoms: _107  and  _108
REMARK   48  A    between atoms: _108  and  _109
REMARK   49  A    between atoms: _113  and  _115
REMARK   50  A    between atoms: _115  and  _116
REMARK   51  A    between atoms: _115  and  _118
REMARK   52  A    between atoms: _118  and  _119
REMARK   53  A    between atoms: _119  and  _120
REMARK   54  A    between atoms: _122  and  _124
REMARK   55  A    between atoms: _124  and  _125
REMARK   56  A    between atoms: _124  and  _127
REMARK   57  A    between atoms: _127  and  _128
REMARK   58  A    between atoms: _131  and  _133
REMARK   59  A    between atoms: _133  and  _134
REMARK   60  A    between atoms: _136  and  _138
REMARK   61  A    between atoms: _138  and  _139
REMARK   62  A    between atoms: _141  and  _143
REMARK   63  A    between atoms: _143  and  _144
REMARK   64  A    between atoms: _143  and  _146
REMARK   65  A    between atoms: _146  and  _147
REMARK   66  A    between atoms: _150  and  _152
REMARK   67  A    between atoms: _152  and  _153
REMARK   68  A    between atoms: _155  and  _157
REMARK   69  A    between atoms: _157  and  _158
REMARK   70  A    between atoms: _160  and  _162
REMARK   71  A    between atoms: _162  and  _163
REMARK   72  A    between atoms: _162  and  _165
REMARK   73  A    between atoms: _165  and  _166
REMARK   74  A    between atoms: _172  and  _174
REMARK   75  A    between atoms: _174  and  _175
REMARK   76  A    between atoms: _174  and  _177
REMARK   77  A    between atoms: _177  and  _178
REMARK   78  A    between atoms: _181  and  _183
REMARK   79  A    between atoms: _183  and  _184
REMARK   80  A    between atoms: _183  and  _186
REMARK   81  A    between atoms: _189  and  _191
REMARK   82  A    between atoms: _191  and  _192
REMARK   83  A    between atoms: _191  and  _194
REMARK   84  A    between atoms: _194  and  _195
REMARK   85  A    between atoms: _198  and  _200
REMARK   86  A    between atoms: _200  and  _201
REMARK   87  A    between atoms: _200  and  _203
REMARK   88  A    between atoms: _203  and  _204
REMARK   89  A    between atoms: _208  and  _209
REMARK   90  A    between atoms: _214  and  _216
REMARK   91  A    between atoms: _216  and  _217
REMARK   92  A    between atoms: _216  and  _219
REMARK   93  A    between atoms: _222  and  _224
REMARK   94  A    between atoms: _224  and  _225
REMARK   95  A    between atoms: _224  and  _227
REMARK   96  A    between atoms: _227  and  _228
REMARK   97  A    between atoms: _233  and  _235
REMARK   98  A    between atoms: _235  and  _236
REMARK   99  A    between atoms: _235  and  _238
REMARK  100  A    between atoms: _238  and  _239
REMARK  101  A    between atoms: _242  and  _244
REMARK  102  A    between atoms: _244  and  _245
REMARK  103  A    between atoms: _244  and  _247
REMARK  104  A    between atoms: _247  and  _248
REMARK  105  A    between atoms: _251  and  _253
REMARK  106  A    between atoms: _253  and  _254
REMARK  107  A    between atoms: _256  and  _258
REMARK  108  A    between atoms: _258  and  _259
REMARK  109  A    between atoms: _258  and  _261
REMARK  110  A    between atoms: _261  and  _262
REMARK  111  A    between atoms: _262  and  _263
REMARK  112  A    between atoms: _263  and  _264
REMARK  113  A    between atoms: _273  and  _275
REMARK  114  A    between atoms: _275  and  _276
REMARK  115  A    between atoms: _275  and  _278
REMARK  116  A    between atoms: _278  and  _279
REMARK  117  A    between atoms: _284  and  _286
REMARK  118  A    between atoms: _286  and  _287
REMARK  119  A    between atoms: _286  and  _289
REMARK  120  A    between atoms: _289  and  _290
REMARK  121  A    between atoms: _290  and  _291
REMARK  122  A    between atoms: _291  and  _292
REMARK  123  A    between atoms: _301  and  _303
REMARK  124  A    between atoms: _303  and  _304
REMARK  125  A    between atoms: _303  and  _306
REMARK  126  A    between atoms: _306  and  _307
REMARK  127  A    between atoms: _310  and  _312
REMARK  128  A    between atoms: _312  and  _313
REMARK  129  A    between atoms: _312  and  _315
REMARK  130  A    between atoms: _315  and  _316
REMARK  131  A    between atoms: _319  and  _321
REMARK  132  A    between atoms: _321  and  _322
REMARK  133  A    between atoms: _321  and  _324
REMARK  134  A    between atoms: _324  and  _325
REMARK  135  A    between atoms: _328  and  _330
REMARK  136  A    between atoms: _330  and  _331
REMARK  137  A    between atoms: _330  and  _333
REMARK  138  A    between atoms: _333  and  _334
REMARK  139  A    between atoms: _337  and  _339
REMARK  140  A    between atoms: _339  and  _340
REMARK  141  A    between atoms: _342  and  _344
REMARK  142  A    between atoms: _344  and  _345
REMARK  143  A    between atoms: _348  and  _350
REMARK  144  A    between atoms: _350  and  _351
REMARK  145  A    between atoms: _350  and  _353
REMARK  146  A    between atoms: _353  and  _354
REMARK  147  A    between atoms: _357  and  _359
REMARK  148  A    between atoms: _359  and  _360
REMARK  149  A    between atoms: _359  and  _362
REMARK  150  A    between atoms: _362  and  _363
REMARK  151  A    between atoms: _366  and  _368
REMARK  152  A    between atoms: _368  and  _369
REMARK  153  A    between atoms: _368  and  _371
REMARK  154  A    between atoms: _371  and  _372
REMARK  155  A    between atoms: _375  and  _377
REMARK  156  A    between atoms: _377  and  _378
REMARK  157  A    between atoms: _377  and  _380
REMARK  158  A    between atoms: _383  and  _385
REMARK  159  A    between atoms: _385  and  _386
REMARK  160  A    between atoms: _385  and  _388
REMARK  161  A    between atoms: _388  and  _389
REMARK  162  A    between atoms: _389  and  _390
REMARK  163  A    between atoms: _390  and  _391
REMARK  164  A    between atoms: _391  and  _392
REMARK  165  A    between atoms: _396  and  _398
REMARK  166  A    between atoms: _398  and  _399
REMARK  167  A    between atoms: _398  and  _401
REMARK  168  A    between atoms: _401  and  _402
REMARK  169  A    between atoms: _402  and  _403
REMARK  170  A    between atoms: _405  and  _407
REMARK  171  A    between atoms: _407  and  _408
REMARK  172  A    between atoms: _407  and  _410
REMARK  173  A    between atoms: _410  and  _411
REMARK  174  A    between atoms: _414  and  _416
REMARK  175  A    between atoms: _416  and  _417
REMARK  176  A    between atoms: _419  and  _421
REMARK  177  A    between atoms: _421  and  _422
REMARK  178  A    between atoms: _424  and  _426
REMARK  179  A    between atoms: _426  and  _427
REMARK  180  A    between atoms: _426  and  _429
REMARK  181  A    between atoms: _429  and  _430
REMARK  182  A    between atoms: _433  and  _435
REMARK  183  A    between atoms: _435  and  _436
REMARK  184  A    between atoms: _438  and  _440
REMARK  185  A    between atoms: _440  and  _441
REMARK  186  A    between atoms: _443  and  _445
REMARK  187  A    between atoms: _445  and  _446
REMARK  188  A    between atoms: _445  and  _448
REMARK  189  A    between atoms: _448  and  _449
REMARK  190  A    between atoms: _455  and  _457
REMARK  191  A    between atoms: _457  and  _458
REMARK  192  A    between atoms: _457  and  _460
REMARK  193  A    between atoms: _460  and  _461
REMARK  194  A    between atoms: _464  and  _466
REMARK  195  A    between atoms: _466  and  _467
REMARK  196  A    between atoms: _466  and  _469
REMARK  197  A    between atoms: _469  and  _470
REMARK  198  A    between atoms: _473  and  _475
REMARK  199  A    between atoms: _475  and  _476
REMARK  200  A    between atoms: _475  and  _478
REMARK  201  A    between atoms: _478  and  _479
REMARK  202  A    between atoms: _483  and  _484
REMARK  203  A    between atoms: _489  and  _491
REMARK  204  A    between atoms: _491  and  _492
REMARK  205  A    between atoms: _491  and  _494
REMARK  206  A    between atoms: _497  and  _499
REMARK  207  A    between atoms: _499  and  _500
REMARK  208  A    between atoms: _499  and  _502
REMARK  209  A    between atoms: _502  and  _503
REMARK  210  A    between atoms: _508  and  _510
REMARK  211  A    between atoms: _510  and  _511
REMARK  212  A    between atoms: _510  and  _513
REMARK  213  A    between atoms: _513  and  _514
REMARK  214  A    between atoms: _517  and  _519
REMARK  215  A    between atoms: _519  and  _520
REMARK  216  A    between atoms: _519  and  _522
REMARK  217  A    between atoms: _522  and  _523
REMARK  218  A    between atoms: _526  and  _528
REMARK  219  A    between atoms: _528  and  _529
REMARK  220  A    between atoms: _531  and  _533
REMARK  221  A    between atoms: _533  and  _534
REMARK  222  A    between atoms: _533  and  _536
REMARK  223  A    between atoms: _536  and  _537
REMARK  224  A    between atoms: _537  and  _538
REMARK  225  A    between atoms: _538  and  _539
REMARK  226  A    between atoms: _548  and  _550
REMARK  227  A    between atoms: _550  and  _551
REMARK  228  A    between atoms: _550  and  _553
REMARK  229  A    between atoms: _553  and  _554
REMARK                            x       y       z     vdW  Elec       q    Type
REMARK                         _______ _______ _______ _____ _____    ______ ____
ROOT
ATOM      1  NE  ARG A   1      19.348  20.247  10.958  0.00  0.00    -0.265 N 
ATOM      2  HE  ARG A   1      20.154  20.761  11.368  0.00  0.00    +0.259 HD
ATOM      3  CZ  ARG A   1      19.221  20.257   9.631  0.00  0.00    +0.342 C 
ATOM      4  NH2 ARG A   1      18.214  19.626   9.025  0.00  0.00    -0.292 N 
ATOM      5 HH21 ARG A   1      17.507  19.112   9.589  0.00  0.00    +0.255 HD
ATOM      6 HH22 ARG A   1      18.136  19.648   7.988  0.00  0.00    +0.255 HD
ATOM      7  NH1 ARG A   1      20.114  20.904   8.888  0.00  0.00    -0.292 N 
ATOM      8 HH11 ARG A   1      20.907  21.399   9.342  0.00  0.00    +0.255 HD
ATOM      9 HH12 ARG A   1      20.019  20.915   7.852  0.00  0.00    +0.255 HD
ENDROOT
BRANCH   1  10
ATOM     10  CD  ARG A   1      18.437  19.566  11.881  0.00  0.00    +0.174 C 
BRANCH  10  11
ATOM     11  CG  ARG A   1      19.115  19.217  13.203  0.00  0.00    +0.045 C 
BRANCH  11  12
ATOM     12  CB  ARG A   1      18.117  18.655  14.187  0.00  0.00    +0.029 C 
BRANCH  12  13
ATOM     13  CA  ARG A   1      18.749  18.055  15.432  0.00  0.00    +0.133 C 
BRANCH  13  14
ATOM     14  N   ARG A   1      19.452  16.826  15.100  0.00  0.00    -0.239 NA
ATOM     15  H   ARG A   1      19.407  16.458  14.128  0.00  0.00    +0.142 HD
ENDBRANCH  13  14
BRANCH  13  16
ATOM     16  C   ARG A   1      17.669  17.733  16.475  0.00  0.00    +0.224 C 
ATOM     17  O   ARG A   1      16.964  16.734  16.332  0.00  0.00    -0.287 OA
ENDBRANCH  13  16
ENDBRANCH  12  13
ENDBRANCH  11  12
ENDBRANCH  10  11
ENDBRANCH   1  10
TORSDOF 6
REMARK  Name = ../refined-set-2016/3mxe/3mxe_pocket.pdb
REMARK  229 active torsions:
REMARK  status: ('A' for Active; 'I' for Inactive)
REMARK    1  A    between atoms: _1  and  _3
REMARK    2  A    between atoms: _3  and  _4
REMARK    3  A    between atoms: _3  and  _6
REMARK    4  A    between atoms: _6  and  _7
REMARK    5  A    between atoms: _7  and  _8
REMARK    6  A    between atoms: _8  and  _9
REMARK    7  A    between atoms: _18  and  _20
REMARK    8  A    between atoms: _20  and  _21
REMARK    9  A    between atoms: _20  and  _23
REMARK   10  A    between atoms: _23  and  _24
REMARK   11  A    between atoms: _27  and  _29
REMARK   12  A    between atoms: _29  and  _30
REMARK   13  A    between atoms: _29  and  _32
REMARK   14  A    between atoms: _32  and  _33
REMARK   15  A    between atoms: _36  and  _38
REMARK   16  A    between atoms: _38  and  _39
REMARK   17  A    between atoms: _38  and  _41
REMARK   18  A    between atoms: _41  and  _42
REMARK   19  A    between atoms: _45  and  _47
REMARK   20  A    between atoms: _47  and  _48
REMARK   21  A    between atoms: _47  and  _50
REMARK   22  A    between atoms: _50  and  _51
REMARK   23  A    between atoms: _54  and  _56
REMARK   24  A    between atoms: _56  and  _57
REMARK   25  A    between atoms: _59  and  _61
REMARK   26  A    between atoms: _61  and  _62
REMARK   27  A    between atoms: _65  and  _67
REMARK   28  A    between atoms: _67  and  _68
REMARK   29  A    between atoms: _67  and  _70
REMARK   30  A    between atoms: _70  and  _71
REMARK   31  A    between atoms: _74  and  _76
REMARK   32  A    between atoms: _76  and  _77
REMARK   33  A    between atoms: _76  and  _79
REMARK   34  A    between atoms: _79  and  _80
REMARK   35  A    between atoms: _83  and  _85
REMARK   36  A    between atoms: _85  and  _86
REMARK   37  A    between atoms: _85  and  _88
REMARK   38  A    between atoms: _88  and  _89
REMARK   39  A    between atoms: _92  and  _94
REMARK   40  A    between atoms: _94  and  _95
REMARK   41  A    between atoms: _94  and  _97
REMARK   42  A    between atoms: _100  and  _102
REMARK   43  A    between atoms: _102  and  _103
REMARK   44  A    between atoms: _102  and  _105
REMARK   45  A    between atoms: _105  and  _106
REMARK   46  A    between atoms: _106  and  _107
REMARK   47  A    between atoms: _107  and  _108
REMARK   48  A    between atoms: _108  and  _109
REMARK   49  A    between atoms: _113  and  _115
REMARK   50  A    between atoms: _115  and  _116
REMARK   51  A    between atoms: _115  and  _118
REMARK   52  A    between atoms: _118  and  _119
REMARK   53  A    between atoms: _119  and  _120
REMARK   54  A    between atoms: _122  and  _124
REMARK   55  A    between atoms: _124  and  _125
REMARK   56  A    between atoms: _124  and  _127
REMARK   57  A    between atoms: _127  and  _128
REMARK   58  A    between atoms: _131  and  _133
REMARK   59  A    between atoms: _133  and  _134
REMARK   60  A    between atoms: _136  and  _138
REMARK   61  A    between atoms: _138  and  _139
REMARK   62  A    between atoms: _141  and  _143
REMARK   63  A    between atoms: _143  and  _144
REMARK   64  A    between atoms: _143  and  _146
REMARK   65  A    between atoms: _146  and  _147
REMARK   66  A    between atoms: _150  and  _152
REMARK   67  A    between atoms: _152  and  _153
REMARK   68  A    between atoms: _155  and  _157
REMARK   69  A    between atoms: _157  and  _158
REMARK   70  A    between atoms: _160  and  _162
REMARK   71  A    between atoms: _162  and  _163
REMARK   72  A    between atoms: _162  and  _165
REMARK   73  A    between atoms: _165  and  _166
REMARK   74  A    between atoms: _172  and  _174
REMARK   75  A    between atoms: _174  and  _175
REMARK   76  A    between atoms: _174  and  _177
REMARK   77  A    between atoms: _177  and  _178
REMARK   78  A    between atoms: _181  and  _183
REMARK   79  A    between atoms: _183  and  _184
REMARK   80  A    between atoms: _183  and  _186
REMARK   81  A    between atoms: _189  and  _191
REMARK   82  A    between atoms: _191  and  _192
REMARK   83  A    between atoms: _191  and  _194
REMARK   84  A    between atoms: _194  and  _195
REMARK   85  A    between atoms: _198  and  _200
REMARK   86  A    between atoms: _200  and  _201
REMARK   87  A    between atoms: _200  and  _203
REMARK   88  A    between atoms: _203  and  _204
REMARK   89  A    between atoms: _208  and  _209
REMARK   90  A    between atoms: _214  and  _216
REMARK   91  A    between atoms: _216  and  _217
REMARK   92  A    between atoms: _216  and  _219
REMARK   93  A    between atoms: _222  and  _224
REMARK   94  A    between atoms: _224  and  _225
REMARK   95  A    between atoms: _224  and  _227
REMARK   96  A    between atoms: _227  and  _228
REMARK   97  A    between atoms: _233  and  _235
REMARK   98  A    between atoms: _235  and  _236
REMARK   99  A    between atoms: _235  and  _238
REMARK  100  A    between atoms: _238  and  _239
REMARK  101  A    between atoms: _242  and  _244
REMARK  102  A    between atoms: _244  and  _245
REMARK  103  A    between atoms: _244  and  _247
REMARK  104  A    between atoms: _247  and  _248
REMARK  105  A    between atoms: _251  and  _253
REMARK  106  A    between atoms: _253  and  _254
REMARK  107  A    between atoms: _256  and  _258
REMARK  108  A    between atoms: _258  and  _259
REMARK  109  A    between atoms: _258  and  _261
REMARK  110  A    between atoms: _261  and  _262
REMARK  111  A    between atoms: _262  and  _263
REMARK  112  A    between atoms: _263  and  _264
REMARK  113  A    between atoms: _273  and  _275
REMARK  114  A    between atoms: _275  and  _276
REMARK  115  A    between atoms: _275  and  _278
REMARK  116  A    between atoms: _278  and  _279
REMARK  117  A    between atoms: _284  and  _286
REMARK  118  A    between atoms: _286  and  _287
REMARK  119  A    between atoms: _286  and  _289
REMARK  120  A    between atoms: _289  and  _290
REMARK  121  A    between atoms: _290  and  _291
REMARK  122  A    between atoms: _291  and  _292
REMARK  123  A    between atoms: _301  and  _303
REMARK  124  A    between atoms: _303  and  _304
REMARK  125  A    between atoms: _303  and  _306
REMARK  126  A    between atoms: _306  and  _307
REMARK  127  A    between atoms: _310  and  _312
REMARK  128  A    between atoms: _312  and  _313
REMARK  129  A    between atoms: _312  and  _315
REMARK  130  A    between atoms: _315  and  _316
REMARK  131  A    between atoms: _319  and  _321
REMARK  132  A    between atoms: _321  and  _322
REMARK  133  A    between atoms: _321  and  _324
REMARK  134  A    between atoms: _324  and  _325
REMARK  135  A    between atoms: _328  and  _330
REMARK  136  A    between atoms: _330  and  _331
REMARK  137  A    between atoms: _330  and  _333
REMARK  138  A    between atoms: _333  and  _334
REMARK  139  A    between atoms: _337  and  _339
REMARK  140  A    between atoms: _339  and  _340
REMARK  141  A    between atoms: _342  and  _344
REMARK  142  A    between atoms: _344  and  _345
REMARK  143  A    between atoms: _348  and  _350
REMARK  144  A    between atoms: _350  and  _351
REMARK  145  A    between atoms: _350  and  _353
REMARK  146  A    between atoms: _353  and  _354
REMARK  147  A    between atoms: _357  and  _359
REMARK  148  A    between atoms: _359  and  _360
REMARK  149  A    between atoms: _359  and  _362
REMARK  150  A    between atoms: _362  and  _363
REMARK  151  A    between atoms: _366  and  _368
REMARK  152  A    between atoms: _368  and  _369
REMARK  153  A    between atoms: _368  and  _371
REMARK  154  A    between atoms: _371  and  _372
REMARK  155  A    between atoms: _375  and  _377
REMARK  156  A    between atoms: _377  and  _378
REMARK  157  A    between atoms: _377  and  _380
REMARK  158  A    between atoms: _383  and  _385
REMARK  159  A    between atoms: _385  and  _386
REMARK  160  A    between atoms: _385  and  _388
REMARK  161  A    between atoms: _388  and  _389
REMARK  162  A    between atoms: _389  and  _390
REMARK  163  A    between atoms: _390  and  _391
REMARK  164  A    between atoms: _391  and  _392
REMARK  165  A    between atoms: _396  and  _398
REMARK  166  A    between atoms: _398  and  _399
REMARK  167  A    between atoms: _398  and  _401
REMARK  168  A    between atoms: _401  and  _402
REMARK  169  A    between atoms: _402  and  _403
REMARK  170  A    between atoms: _405  and  _407
REMARK  171  A    between atoms: _407  and  _408
REMARK  172  A    between atoms: _407  and  _410
REMARK  173  A    between atoms: _410  and  _411
REMARK  174  A    between atoms: _414  and  _416
REMARK  175  A    between atoms: _416  and  _417
REMARK  176  A    between atoms: _419  and  _421
REMARK  177  A    between atoms: _421  and  _422
REMARK  178  A    between atoms: _424  and  _426
REMARK  179  A    between atoms: _426  and  _427
REMARK  180  A    between atoms: _426  and  _429
REMARK  181  A    between atoms: _429  and  _430
REMARK  182  A    between atoms: _433  and  _435
REMARK  183  A    between atoms: _435  and  _436
REMARK  184  A    between atoms: _438  and  _440
REMARK  185  A    between atoms: _440  and  _441
REMARK  186  A    between atoms: _443  and  _445
REMARK  187  A    between atoms: _445  and  _446
REMARK  188  A    between atoms: _445  and  _448
REMARK  189  A    between atoms: _448  and  _449
REMARK  190  A    between atoms: _455  and  _457
REMARK  191  A    between atoms: _457  and  _458
REMARK  192  A    between atoms: _457  and  _460
REMARK  193  A    between atoms: _460  and  _461
REMARK  194  A    between atoms: _464  and  _466
REMARK  195  A    between atoms: _466  and  _467
REMARK  196  A    between atoms: _466  and  _469
REMARK  197  A    between atoms: _469  and  _470
REMARK  198  A    between atoms: _473  and  _475
REMARK  199  A    between atoms: _475  and  _476
REMARK  200  A    between atoms: _475  and  _478
REMARK  201  A    between atoms: _478  and  _479
REMARK  202  A    between atoms: _483  and  _484
REMARK  203  A    between atoms: _489  and  _491
REMARK  204  A    between atoms: _491  and  _492
REMARK  205  A    between atoms: _491  and  _494
REMARK  206  A    between atoms: _497  and  _499
REMARK  207  A    between atoms: _499  and  _500
REMARK  208  A    between atoms: _499  and  _502
REMARK  209  A    between atoms: _502  and  _503
REMARK  210  A    between atoms: _508  and  _510
REMARK  211  A    between atoms: _510  and  _511
REMARK  212  A    between atoms: _510  and  _513
REMARK  213  A    between atoms: _513  and  _514
REMARK  214  A    between atoms: _517  and  _519
REMARK  215  A    between atoms: _519  and  _520
REMARK  216  A    between atoms: _519  and  _522
REMARK  217  A    between atoms: _522  and  _523
REMARK  218  A    between atoms: _526  and  _528
REMARK  219  A    between atoms: _528  and  _529
REMARK  220  A    between atoms: _531  and  _533
REMARK  221  A    between atoms: _533  and  _534
REMARK  222  A    between atoms: _533  and  _536
REMARK  223  A    between atoms: _536  and  _537
REMARK  224  A    between atoms: _537  and  _538
REMARK  225  A    between atoms: _538  and  _539
REMARK  226  A    between atoms: _548  and  _550
REMARK  227  A    between atoms: _550  and  _551
REMARK  228  A    between atoms: _550  and  _553
REMARK  229  A    between atoms: _553  and  _554
REMARK                            x       y       z     vdW  Elec       q    Type
REMARK                         _______ _______ _______ _____ _____    ______ ____
ROOT
ATOM      1  C   GLY A   5      19.518  30.853  20.168  0.00  0.00    +0.243 C 
ATOM      2  N   ALA A   6      18.236  30.594  20.439  0.00  0.00    -0.297 N 
ATOM      3  H   ALA A   6      18.004  29.733  20.975  0.00  0.00    +0.150 HD
ATOM      4  O   GLY A   5      19.887  31.854  19.557  0.00  0.00    -0.273 OA
ENDROOT
BRANCH   2   5
ATOM      5  CA  ALA A   6      17.144  31.470  20.014  0.00  0.00    +0.149 C 
ATOM      6  CB  ALA A   6      16.069  30.648  19.307  0.00  0.00    +0.031 C 
BRANCH   5   7
ATOM      7  C   ALA A   6      16.548  32.169  21.230  0.00  0.00    +0.241 C 
ATOM      8  O   ALA A   6      16.024  31.502  22.128  0.00  0.00    -0.273 OA
ATOM      9  N   ASP A   7      16.625  33.503  21.265  0.00  0.00    -0.297 N 
ATOM     10  H   ASP A   7      17.145  34.006  20.518  0.00  0.00    +0.150 HD
BRANCH   9  11
ATOM     11  CA  ASP A   7      15.985  34.269  22.345  0.00  0.00    +0.160 C 
BRANCH  11  12
ATOM     12  C   ASP A   7      14.486  34.037  22.336  0.00  0.00    +0.241 C 
ATOM     13  O   ASP A   7      13.865  33.838  23.389  0.00  0.00    -0.273 OA
ATOM     14  N   ASP A   8      13.924  34.064  21.123  0.00  0.00    -0.297 N 
ATOM     15  H   ASP A   8      14.552  34.086  20.294  0.00  0.00    +0.150 HD
BRANCH  14  16
ATOM     16  CA  ASP A   8      12.481  34.065  20.891  0.00  0.00    +0.160 C 
BRANCH  16  17
ATOM     17  C   ASP A   8      12.063  32.842  20.103  0.00  0.00    +0.241 C 
ATOM     18  N   THR A   9      10.769  32.556  20.165  0.00  0.00    -0.295 N 
ATOM     19  H   THR A   9      10.160  33.144  20.768  0.00  0.00    +0.150 HD
ATOM     20  O   ASP A   8      12.888  32.168  19.481  0.00  0.00    -0.273 OA
BRANCH  18  21
ATOM     21  CA  THR A   9      10.162  31.456  19.427  0.00  0.00    +0.176 C 
BRANCH  21  22
ATOM     22  C   THR A   9       9.695  31.956  18.063  0.00  0.00    +0.243 C 
ATOM     23  O   THR A   9       8.966  32.959  17.957  0.00  0.00    -0.273 OA
ATOM     24  N   VAL A  10      10.152  31.275  17.025  0.00  0.00    -0.298 N 
ATOM     25  H   VAL A  10      10.731  30.430  17.205  0.00  0.00    +0.150 HD
BRANCH  24  26
ATOM     26  CA  VAL A  10       9.885  31.648  15.648  0.00  0.00    +0.137 C 
BRANCH  26  27
ATOM     27  CB  VAL A  10      11.167  32.119  14.904  0.00  0.00    +0.026 C 
ATOM     28  CG2 VAL A  10      12.041  33.013  15.800  0.00  0.00    +0.002 C 
ATOM     29  CG1 VAL A  10      10.777  32.868  13.599  0.00  0.00    +0.002 C 
ENDBRANCH  26  27
BRANCH  26  30
ATOM     30  C   VAL A  10       9.248  30.476  14.891  0.00  0.00    +0.227 C 
ATOM     31  O   VAL A  10       9.879  29.428  14.683  0.00  0.00    -0.286 OA
ENDBRANCH  26  30
ENDBRANCH  24  26
ENDBRANCH  21  22
BRANCH  21  32
ATOM     32  CB  THR A   9       9.000  30.827  20.248  0.00  0.00    +0.137 C 
ATOM     33  CG2 THR A   9       8.278  29.741  19.464  0.00  0.00    +0.034 C 
BRANCH  32  34
ATOM     34  OG1 THR A   9       9.553  30.259  21.439  0.00  0.00    -0.382 OA
ATOM     35  HG1 THR A   9       9.998  30.969  21.966  0.00  0.00    +0.210 HD
ENDBRANCH  32  34
ENDBRANCH  21  32
ENDBRANCH  18  21
ENDBRANCH  16  17
BRANCH  16  36
ATOM     36  CB  ASP A   8      12.065  35.323  20.116  0.00  0.00    +0.143 C 
BRANCH  36  37
ATOM     37  CG  ASP A   8      12.473  36.607  20.821  0.00  0.00    +0.367 C 
ATOM     38  OD2 ASP A   8      12.404  36.649  22.060  0.00  0.00    -0.246 OA
ATOM     39  OD1 ASP A   8      12.871  37.577  20.138  0.00  0.00    -0.246 OA
ENDBRANCH  36  37
ENDBRANCH  16  36
ENDBRANCH  14  16
ENDBRANCH  11  12
BRANCH  11  40
ATOM     40  CB  ASP A   7      16.223  35.766  22.175  0.00  0.00    +0.143 C 
BRANCH  40  41
ATOM     41  CG  ASP A   7      17.682  36.163  22.313  0.00  0.00    +0.367 C 
ATOM     42  OD2 ASP A   7      18.492  35.379  22.834  0.00  0.00    -0.246 OA
ATOM     43  OD1 ASP A   7      18.010  37.283  21.886  0.00  0.00    -0.246 OA
ENDBRANCH  40  41
ENDBRANCH  11  40
ENDBRANCH   9  11
ENDBRANCH   5   7
ENDBRANCH   2   5
BRANCH   1  44
ATOM     44  CA  GLY A   5      20.546  29.838  20.635  0.00  0.00    +0.176 C 
BRANCH  44  47
ATOM     45  C   THR A   4      19.724  28.591  22.545  0.00  0.00    +0.243 C 
ATOM     46  O   THR A   4      20.003  29.515  23.307  0.00  0.00    -0.273 OA
ATOM     47  N   GLY A   5      19.982  28.645  21.239  0.00  0.00    -0.295 N 
ATOM     48  H   GLY A   5      19.776  27.818  20.642  0.00  0.00    +0.150 HD
BRANCH  45  49
ATOM     49  CA  THR A   4      19.073  27.324  23.088  0.00  0.00    +0.176 C 
BRANCH  49  51
ATOM     50  C   ASP A   3      17.408  26.887  21.366  0.00  0.00    +0.241 C 
ATOM     51  N   THR A   4      18.482  26.498  22.046  0.00  0.00    -0.295 N 
ATOM     52  H   THR A   4      18.912  25.577  21.827  0.00  0.00    +0.150 HD
ATOM     53  O   ASP A   3      16.848  27.972  21.549  0.00  0.00    -0.273 OA
BRANCH  50  54
ATOM     54  CA  ASP A   3      16.907  25.917  20.300  0.00  0.00    +0.160 C 
BRANCH  54  56
ATOM     55  C   LEU A   2      15.848  23.783  20.764  0.00  0.00    +0.241 C 
ATOM     56  N   ASP A   3      15.777  25.117  20.750  0.00  0.00    -0.297 N 
ATOM     57  H   ASP A   3      14.905  25.589  21.064  0.00  0.00    +0.150 HD
ATOM     58  O   LEU A   2      16.907  23.168  20.639  0.00  0.00    -0.273 OA
BRANCH  55  59
ATOM     59  CA  LEU A   2      14.528  23.015  20.885  0.00  0.00    +0.149 C 
BRANCH  59  61
ATOM     60  C   LEU A   1      13.749  23.246  18.590  0.00  0.00    +0.238 C 
ATOM     61  N   LEU A   2      14.264  22.483  19.550  0.00  0.00    -0.297 N 
ATOM     62  H   LEU A   2      14.483  21.487  19.346  0.00  0.00    +0.150 HD
ATOM     63  O   LEU A   1      13.278  24.354  18.794  0.00  0.00    -0.274 OA
BRANCH  60  64
ATOM     64  CA  LEU A   1      13.812  22.711  17.187  0.00  0.00    +0.145 C 
BRANCH  64  65
ATOM     65  N   LEU A   1      12.520  22.851  16.536  0.00  0.00    -0.238 NA
ATOM     66  H   LEU A   1      12.378  23.636  15.869  0.00  0.00    +0.142 HD
ENDBRANCH  64  65
BRANCH  64  67
ATOM     67  CB  LEU A   1      14.876  23.527  16.465  0.00  0.00    +0.026 C 
BRANCH  67  68
ATOM     68  CG  LEU A   1      15.475  22.985  15.181  0.00  0.00    +0.002 C 
ATOM     69  CD2 LEU A   1      16.235  21.701  15.460  0.00  0.00    +0.000 C 
ATOM     70  CD1 LEU A   1      16.370  24.082  14.596  0.00  0.00    +0.000 C 
ENDBRANCH  67  68
ENDBRANCH  64  67
ENDBRANCH  60  64
ENDBRANCH  59  61
BRANCH  59  71
ATOM     71  CB  LEU A   2      14.627  21.893  21.917  0.00  0.00    +0.029 C 
BRANCH  71  72
ATOM     72  CG  LEU A   2      13.363  21.036  22.094  0.00  0.00    +0.002 C 
ATOM     73  CD2 LEU A   2      13.599  19.905  23.080  0.00  0.00    +0.000 C 
ATOM     74  CD1 LEU A   2      12.171  21.873  22.554  0.00  0.00    +0.000 C 
ENDBRANCH  71  72
ENDBRANCH  59  71
ENDBRANCH  55  59
ENDBRANCH  54  56
BRANCH  54  75
ATOM     75  CB  ASP A   3      16.534  26.671  19.022  0.00  0.00    +0.143 C 
BRANCH  75  76
ATOM     76  CG  ASP A   3      17.734  27.331  18.370  0.00  0.00    +0.367 C 
ATOM     77  OD2 ASP A   3      18.861  27.243  18.928  0.00  0.00    -0.246 OA
ATOM     78  OD1 ASP A   3      17.562  27.892  17.280  0.00  0.00    -0.246 OA
ENDBRANCH  75  76
ENDBRANCH  54  75
ENDBRANCH  50  54
ENDBRANCH  49  51
BRANCH  49  79
ATOM     79  CB  THR A   4      20.112  26.535  23.905  0.00  0.00    +0.137 C 
ATOM     80  CG2 THR A   4      19.475  25.276  24.494  0.00  0.00    +0.034 C 
BRANCH  79  81
ATOM     81  OG1 THR A   4      21.225  26.183  23.061  0.00  0.00    -0.382 OA
ATOM     82  HG1 THR A   4      21.642  27.008  22.706  0.00  0.00    +0.210 HD
ENDBRANCH  79  81
ENDBRANCH  49  79
ENDBRANCH  45  49
ENDBRANCH  44  47
ENDBRANCH   1  44
TORSDOF 35
REMARK  Name = ../refined-set-2016/3mxe/3mxe_pocket.pdb
REMARK  229 active torsions:
REMARK  status: ('A' for Active; 'I' for Inactive)
REMARK    1  A    between atoms: _1  and  _3
REMARK    2  A    between atoms: _3  and  _4
REMARK    3  A    between atoms: _3  and  _6
REMARK    4  A    between atoms: _6  and  _7
REMARK    5  A    between atoms: _7  and  _8
REMARK    6  A    between atoms: _8  and  _9
REMARK    7  A    between atoms: _18  and  _20
REMARK    8  A    between atoms: _20  and  _21
REMARK    9  A    between atoms: _20  and  _23
REMARK   10  A    between atoms: _23  and  _24
REMARK   11  A    between atoms: _27  and  _29
REMARK   12  A    between atoms: _29  and  _30
REMARK   13  A    between atoms: _29  and  _32
REMARK   14  A    between atoms: _32  and  _33
REMARK   15  A    between atoms: _36  and  _38
REMARK   16  A    between atoms: _38  and  _39
REMARK   17  A    between atoms: _38  and  _41
REMARK   18  A    between atoms: _41  and  _42
REMARK   19  A    between atoms: _45  and  _47
REMARK   20  A    between atoms: _47  and  _48
REMARK   21  A    between atoms: _47  and  _50
REMARK   22  A    between atoms: _50  and  _51
REMARK   23  A    between atoms: _54  and  _56
REMARK   24  A    between atoms: _56  and  _57
REMARK   25  A    between atoms: _59  and  _61
REMARK   26  A    between atoms: _61  and  _62
REMARK   27  A    between atoms: _65  and  _67
REMARK   28  A    between atoms: _67  and  _68
REMARK   29  A    between atoms: _67  and  _70
REMARK   30  A    between atoms: _70  and  _71
REMARK   31  A    between atoms: _74  and  _76
REMARK   32  A    between atoms: _76  and  _77
REMARK   33  A    between atoms: _76  and  _79
REMARK   34  A    between atoms: _79  and  _80
REMARK   35  A    between atoms: _83  and  _85
REMARK   36  A    between atoms: _85  and  _86
REMARK   37  A    between atoms: _85  and  _88
REMARK   38  A    between atoms: _88  and  _89
REMARK   39  A    between atoms: _92  and  _94
REMARK   40  A    between atoms: _94  and  _95
REMARK   41  A    between atoms: _94  and  _97
REMARK   42  A    between atoms: _100  and  _102
REMARK   43  A    between atoms: _102  and  _103
REMARK   44  A    between atoms: _102  and  _105
REMARK   45  A    between atoms: _105  and  _106
REMARK   46  A    between atoms: _106  and  _107
REMARK   47  A    between atoms: _107  and  _108
REMARK   48  A    between atoms: _108  and  _109
REMARK   49  A    between atoms: _113  and  _115
REMARK   50  A    between atoms: _115  and  _116
REMARK   51  A    between atoms: _115  and  _118
REMARK   52  A    between atoms: _118  and  _119
REMARK   53  A    between atoms: _119  and  _120
REMARK   54  A    between atoms: _122  and  _124
REMARK   55  A    between atoms: _124  and  _125
REMARK   56  A    between atoms: _124  and  _127
REMARK   57  A    between atoms: _127  and  _128
REMARK   58  A    between atoms: _131  and  _133
REMARK   59  A    between atoms: _133  and  _134
REMARK   60  A    between atoms: _136  and  _138
REMARK   61  A    between atoms: _138  and  _139
REMARK   62  A    between atoms: _141  and  _143
REMARK   63  A    between atoms: _143  and  _144
REMARK   64  A    between atoms: _143  and  _146
REMARK   65  A    between atoms: _146  and  _147
REMARK   66  A    between atoms: _150  and  _152
REMARK   67  A    between atoms: _152  and  _153
REMARK   68  A    between atoms: _155  and  _157
REMARK   69  A    between atoms: _157  and  _158
REMARK   70  A    between atoms: _160  and  _162
REMARK   71  A    between atoms: _162  and  _163
REMARK   72  A    between atoms: _162  and  _165
REMARK   73  A    between atoms: _165  and  _166
REMARK   74  A    between atoms: _172  and  _174
REMARK   75  A    between atoms: _174  and  _175
REMARK   76  A    between atoms: _174  and  _177
REMARK   77  A    between atoms: _177  and  _178
REMARK   78  A    between atoms: _181  and  _183
REMARK   79  A    between atoms: _183  and  _184
REMARK   80  A    between atoms: _183  and  _186
REMARK   81  A    between atoms: _189  and  _191
REMARK   82  A    between atoms: _191  and  _192
REMARK   83  A    between atoms: _191  and  _194
REMARK   84  A    between atoms: _194  and  _195
REMARK   85  A    between atoms: _198  and  _200
REMARK   86  A    between atoms: _200  and  _201
REMARK   87  A    between atoms: _200  and  _203
REMARK   88  A    between atoms: _203  and  _204
REMARK   89  A    between atoms: _208  and  _209
REMARK   90  A    between atoms: _214  and  _216
REMARK   91  A    between atoms: _216  and  _217
REMARK   92  A    between atoms: _216  and  _219
REMARK   93  A    between atoms: _222  and  _224
REMARK   94  A    between atoms: _224  and  _225
REMARK   95  A    between atoms: _224  and  _227
REMARK   96  A    between atoms: _227  and  _228
REMARK   97  A    between atoms: _233  and  _235
REMARK   98  A    between atoms: _235  and  _236
REMARK   99  A    between atoms: _235  and  _238
REMARK  100  A    between atoms: _238  and  _239
REMARK  101  A    between atoms: _242  and  _244
REMARK  102  A    between atoms: _244  and  _245
REMARK  103  A    between atoms: _244  and  _247
REMARK  104  A    between atoms: _247  and  _248
REMARK  105  A    between atoms: _251  and  _253
REMARK  106  A    between atoms: _253  and  _254
REMARK  107  A    between atoms: _256  and  _258
REMARK  108  A    between atoms: _258  and  _259
REMARK  109  A    between atoms: _258  and  _261
REMARK  110  A    between atoms: _261  and  _262
REMARK  111  A    between atoms: _262  and  _263
REMARK  112  A    between atoms: _263  and  _264
REMARK  113  A    between atoms: _273  and  _275
REMARK  114  A    between atoms: _275  and  _276
REMARK  115  A    between atoms: _275  and  _278
REMARK  116  A    between atoms: _278  and  _279
REMARK  117  A    between atoms: _284  and  _286
REMARK  118  A    between atoms: _286  and  _287
REMARK  119  A    between atoms: _286  and  _289
REMARK  120  A    between atoms: _289  and  _290
REMARK  121  A    between atoms: _290  and  _291
REMARK  122  A    between atoms: _291  and  _292
REMARK  123  A    between atoms: _301  and  _303
REMARK  124  A    between atoms: _303  and  _304
REMARK  125  A    between atoms: _303  and  _306
REMARK  126  A    between atoms: _306  and  _307
REMARK  127  A    between atoms: _310  and  _312
REMARK  128  A    between atoms: _312  and  _313
REMARK  129  A    between atoms: _312  and  _315
REMARK  130  A    between atoms: _315  and  _316
REMARK  131  A    between atoms: _319  and  _321
REMARK  132  A    between atoms: _321  and  _322
REMARK  133  A    between atoms: _321  and  _324
REMARK  134  A    between atoms: _324  and  _325
REMARK  135  A    between atoms: _328  and  _330
REMARK  136  A    between atoms: _330  and  _331
REMARK  137  A    between atoms: _330  and  _333
REMARK  138  A    between atoms: _333  and  _334
REMARK  139  A    between atoms: _337  and  _339
REMARK  140  A    between atoms: _339  and  _340
REMARK  141  A    between atoms: _342  and  _344
REMARK  142  A    between atoms: _344  and  _345
REMARK  143  A    between atoms: _348  and  _350
REMARK  144  A    between atoms: _350  and  _351
REMARK  145  A    between atoms: _350  and  _353
REMARK  146  A    between atoms: _353  and  _354
REMARK  147  A    between atoms: _357  and  _359
REMARK  148  A    between atoms: _359  and  _360
REMARK  149  A    between atoms: _359  and  _362
REMARK  150  A    between atoms: _362  and  _363
REMARK  151  A    between atoms: _366  and  _368
REMARK  152  A    between atoms: _368  and  _369
REMARK  153  A    between atoms: _368  and  _371
REMARK  154  A    between atoms: _371  and  _372
REMARK  155  A    between atoms: _375  and  _377
REMARK  156  A    between atoms: _377  and  _378
REMARK  157  A    between atoms: _377  and  _380
REMARK  158  A    between atoms: _383  and  _385
REMARK  159  A    between atoms: _385  and  _386
REMARK  160  A    between atoms: _385  and  _388
REMARK  161  A    between atoms: _388  and  _389
REMARK  162  A    between atoms: _389  and  _390
REMARK  163  A    between atoms: _390  and  _391
REMARK  164  A    between atoms: _391  and  _392
REMARK  165  A    between atoms: _396  and  _398
REMARK  166  A    between atoms: _398  and  _399
REMARK  167  A    between atoms: _398  and  _401
REMARK  168  A    between atoms: _401  and  _402
REMARK  169  A    between atoms: _402  and  _403
REMARK  170  A    between atoms: _405  and  _407
REMARK  171  A    between atoms: _407  and  _408
REMARK  172  A    between atoms: _407  and  _410
REMARK  173  A    between atoms: _410  and  _411
REMARK  174  A    between atoms: _414  and  _416
REMARK  175  A    between atoms: _416  and  _417
REMARK  176  A    between atoms: _419  and  _421
REMARK  177  A    between atoms: _421  and  _422
REMARK  178  A    between atoms: _424  and  _426
REMARK  179  A    between atoms: _426  and  _427
REMARK  180  A    between atoms: _426  and  _429
REMARK  181  A    between atoms: _429  and  _430
REMARK  182  A    between atoms: _433  and  _435
REMARK  183  A    between atoms: _435  and  _436
REMARK  184  A    between atoms: _438  and  _440
REMARK  185  A    between atoms: _440  and  _441
REMARK  186  A    between atoms: _443  and  _445
REMARK  187  A    between atoms: _445  and  _446
REMARK  188  A    between atoms: _445  and  _448
REMARK  189  A    between atoms: _448  and  _449
REMARK  190  A    between atoms: _455  and  _457
REMARK  191  A    between atoms: _457  and  _458
REMARK  192  A    between atoms: _457  and  _460
REMARK  193  A    between atoms: _460  and  _461
REMARK  194  A    between atoms: _464  and  _466
REMARK  195  A    between atoms: _466  and  _467
REMARK  196  A    between atoms: _466  and  _469
REMARK  197  A    between atoms: _469  and  _470
REMARK  198  A    between atoms: _473  and  _475
REMARK  199  A    between atoms: _475  and  _476
REMARK  200  A    between atoms: _475  and  _478
REMARK  201  A    between atoms: _478  and  _479
REMARK  202  A    between atoms: _483  and  _484
REMARK  203  A    between atoms: _489  and  _491
REMARK  204  A    between atoms: _491  and  _492
REMARK  205  A    between atoms: _491  and  _494
REMARK  206  A    between atoms: _497  and  _499
REMARK  207  A    between atoms: _499  and  _500
REMARK  208  A    between atoms: _499  and  _502
REMARK  209  A    between atoms: _502  and  _503
REMARK  210  A    between atoms: _508  and  _510
REMARK  211  A    between atoms: _510  and  _511
REMARK  212  A    between atoms: _510  and  _513
REMARK  213  A    between atoms: _513  and  _514
REMARK  214  A    between atoms: _517  and  _519
REMARK  215  A    between atoms: _519  and  _520
REMARK  216  A    between atoms: _519  and  _522
REMARK  217  A    between atoms: _522  and  _523
REMARK  218  A    between atoms: _526  and  _528
REMARK  219  A    between atoms: _528  and  _529
REMARK  220  A    between atoms: _531  and  _533
REMARK  221  A    between atoms: _533  and  _534
REMARK  222  A    between atoms: _533  and  _536
REMARK  223  A    between atoms: _536  and  _537
REMARK  224  A    between atoms: _537  and  _538
REMARK  225  A    between atoms: _538  and  _539
REMARK  226  A    between atoms: _548  and  _550
REMARK  227  A    between atoms: _550  and  _551
REMARK  228  A    between atoms: _550  and  _553
REMARK  229  A    between atoms: _553  and  _554
REMARK                            x       y       z     vdW  Elec       q    Type
REMARK                         _______ _______ _______ _____ _____    ______ ____
ROOT
ATOM      1  C   GLY A   5      21.393  35.628  11.220  0.00  0.00    +0.243 C 
ATOM      2  N   ILE A   6      21.886  34.419  10.986  0.00  0.00    -0.297 N 
ATOM      3  H   ILE A   6      21.620  33.629  11.608  0.00  0.00    +0.150 HD
ATOM      4  O   GLY A   5      21.748  36.627  10.591  0.00  0.00    -0.273 OA
ENDROOT
BRANCH   2   5
ATOM      5  CA  ILE A   6      22.796  34.178   9.869  0.00  0.00    +0.149 C 
BRANCH   5   6
ATOM      6  C   ILE A   6      22.097  34.558   8.573  0.00  0.00    +0.241 C 
ATOM      7  O   ILE A   6      20.971  34.143   8.322  0.00  0.00    -0.273 OA
ATOM      8  N   GLY A   7      22.770  35.371   7.763  0.00  0.00    -0.295 N 
ATOM      9  H   GLY A   7      23.710  35.708   8.052  0.00  0.00    +0.150 HD
BRANCH   8  10
ATOM     10  CA  GLY A   7      22.226  35.802   6.482  0.00  0.00    +0.176 C 
BRANCH  10  11
ATOM     11  C   GLY A   7      21.511  37.134   6.500  0.00  0.00    +0.243 C 
ATOM     12  N   GLY A   8      21.144  37.613   7.685  0.00  0.00    -0.295 N 
ATOM     13  H   GLY A   8      21.368  37.061   8.538  0.00  0.00    +0.150 HD
ATOM     14  O   GLY A   7      21.277  37.707   5.439  0.00  0.00    -0.273 OA
BRANCH  12  15
ATOM     15  CA  GLY A   8      20.445  38.872   7.836  0.00  0.00    +0.176 C 
BRANCH  15  16
ATOM     16  C   GLY A   8      19.140  38.735   8.577  0.00  0.00    +0.243 C 
ATOM     17  O   GLY A   8      19.001  37.881   9.441  0.00  0.00    -0.273 OA
ATOM     18  N   PHE A   9      18.169  39.569   8.217  0.00  0.00    -0.297 N 
ATOM     19  H   PHE A   9      18.296  40.151   7.364  0.00  0.00    +0.150 HD
BRANCH  18  20
ATOM     20  CA  PHE A   9      16.942  39.693   8.973  0.00  0.00    +0.153 C 
BRANCH  20  21
ATOM     21  C   PHE A   9      15.728  39.192   8.203  0.00  0.00    +0.241 C 
ATOM     22  N   ILE A  10      14.700  38.804   8.946  0.00  0.00    -0.298 N 
ATOM     23  H   ILE A  10      14.834  38.678   9.970  0.00  0.00    +0.150 HD
ATOM     24  O   PHE A   9      15.707  39.201   6.963  0.00  0.00    -0.273 OA
BRANCH  22  25
ATOM     25  CA  ILE A  10      13.375  38.547   8.360  0.00  0.00    +0.137 C 
BRANCH  25  26
ATOM     26  C   ILE A  10      12.327  39.347   9.125  0.00  0.00    +0.227 C 
ATOM     27  O   ILE A  10      12.533  39.674  10.290  0.00  0.00    -0.286 OA
ENDBRANCH  25  26
BRANCH  25  28
ATOM     28  CB  ILE A  10      12.997  37.033   8.378  0.00  0.00    +0.026 C 
ATOM     29  CG2 ILE A  10      13.950  36.241   7.476  0.00  0.00    +0.002 C 
BRANCH  28  30
ATOM     30  CG1 ILE A  10      12.985  36.471   9.795  0.00  0.00    +0.002 C 
ATOM     31  CD1 ILE A  10      12.100  35.230   9.939  0.00  0.00    +0.000 C 
ENDBRANCH  28  30
ENDBRANCH  25  28
ENDBRANCH  22  25
ENDBRANCH  20  21
BRANCH  20  32
ATOM     32  CB  PHE A   9      16.698  41.171   9.342  0.00  0.00    +0.055 C 
BRANCH  32  33
ATOM     33  CG  PHE A   9      17.521  41.659  10.492  0.00  0.00    -0.020 A 
ATOM     34  CD2 PHE A   9      16.953  41.866  11.735  0.00  0.00    -0.004 A 
ATOM     35  CE2 PHE A   9      17.720  42.320  12.796  0.00  0.00    -0.000 A 
ATOM     36  CZ  PHE A   9      19.064  42.580  12.615  0.00  0.00    -0.000 A 
ATOM     37  CE1 PHE A   9      19.635  42.394  11.394  0.00  0.00    -0.000 A 
ATOM     38  CD1 PHE A   9      18.874  41.925  10.331  0.00  0.00    -0.004 A 
ENDBRANCH  32  33
ENDBRANCH  20  32
ENDBRANCH  18  20
ENDBRANCH  15  16
ENDBRANCH  12  15
ENDBRANCH  10  11
ENDBRANCH   8  10
ENDBRANCH   5   6
BRANCH   5  39
ATOM     39  CB  ILE A   6      23.308  32.729   9.853  0.00  0.00    +0.027 C 
ATOM     40  CG2 ILE A   6      23.980  32.371   8.525  0.00  0.00    +0.002 C 
BRANCH  39  41
ATOM     41  CG1 ILE A   6      24.319  32.540  11.004  0.00  0.00    +0.002 C 
ATOM     42  CD1 ILE A   6      24.823  31.120  11.189  0.00  0.00    +0.000 C 
ENDBRANCH  39  41
ENDBRANCH   5  39
ENDBRANCH   2   5
BRANCH   1  43
ATOM     43  CA  GLY A   5      20.347  35.722  12.314  0.00  0.00    +0.176 C 
BRANCH  43  46
ATOM     44  C   GLY A   4      18.936  37.531  13.122  0.00  0.00    +0.243 C 
ATOM     45  O   GLY A   4      18.943  37.118  14.285  0.00  0.00    -0.273 OA
ATOM     46  N   GLY A   5      19.543  36.920  12.127  0.00  0.00    -0.295 N 
ATOM     47  H   GLY A   5      19.444  37.309  11.168  0.00  0.00    +0.150 HD
BRANCH  44  48
ATOM     48  CA  GLY A   4      18.267  38.832  12.744  0.00  0.00    +0.176 C 
BRANCH  48  50
ATOM     49  C   ILE A   3      15.861  39.095  12.908  0.00  0.00    +0.241 C 
ATOM     50  N   GLY A   4      17.049  39.046  13.488  0.00  0.00    -0.295 N 
ATOM     51  H   GLY A   4      17.107  39.166  14.519  0.00  0.00    +0.150 HD
ATOM     52  O   ILE A   3      15.659  38.809  11.722  0.00  0.00    -0.273 OA
BRANCH  49  53
ATOM     53  CA  ILE A   3      14.731  39.526  13.828  0.00  0.00    +0.149 C 
BRANCH  53  56
ATOM     54  C   MET A   2      13.424  41.549  13.431  0.00  0.00    +0.241 C 
ATOM     55  O   MET A   2      13.900  42.129  14.418  0.00  0.00    -0.273 OA
ATOM     56  N   ILE A   3      13.747  40.304  13.081  0.00  0.00    -0.297 N 
ATOM     57  H   ILE A   3      13.286  39.875  12.253  0.00  0.00    +0.150 HD
BRANCH  54  58
ATOM     58  CA  MET A   2      12.415  42.261  12.544  0.00  0.00    +0.149 C 
BRANCH  58  60
ATOM     59  C   LYS A   1      10.081  42.489  13.218  0.00  0.00    +0.238 C 
ATOM     60  N   MET A   2      11.358  42.825  13.375  0.00  0.00    -0.297 N 
ATOM     61  H   MET A   2      11.611  43.512  14.114  0.00  0.00    +0.150 HD
ATOM     62  O   LYS A   1       9.681  41.786  12.285  0.00  0.00    -0.274 OA
BRANCH  59  63
ATOM     63  CA  LYS A   1       9.099  43.028  14.254  0.00  0.00    +0.145 C 
BRANCH  63  64
ATOM     64  N   LYS A   1       7.786  43.053  13.650  0.00  0.00    -0.238 NA
ATOM     65  H   LYS A   1       7.569  42.364  12.902  0.00  0.00    +0.142 HD
ENDBRANCH  63  64
BRANCH  63  66
ATOM     66  CB  LYS A   1       9.047  42.097  15.462  0.00  0.00    +0.026 C 
BRANCH  66  67
ATOM     67  CG  LYS A   1      10.276  42.080  16.333  0.00  0.00    -0.000 C 
BRANCH  67  68
ATOM     68  CD  LYS A   1      10.032  41.134  17.496  0.00  0.00    -0.024 C 
BRANCH  68  69
ATOM     69  CE  LYS A   1      11.309  40.823  18.238  0.00  0.00    -0.086 C 
BRANCH  69  70
ATOM     70  NZ  LYS A   1      11.585  41.828  19.254  0.00  0.00    +0.380 N 
ATOM     71  HZ1 LYS A   1      10.801  41.853  19.937  0.00  0.00    -0.089 HD
ATOM     72  HZ2 LYS A   1      12.469  41.587  19.747  0.00  0.00    -0.089 HD
ATOM     73  HZ3 LYS A   1      11.682  42.759  18.801  0.00  0.00    -0.089 HD
ENDBRANCH  69  70
ENDBRANCH  68  69
ENDBRANCH  67  68
ENDBRANCH  66  67
ENDBRANCH  63  66
ENDBRANCH  59  63
ENDBRANCH  58  60
BRANCH  58  74
ATOM     74  CB  MET A   2      13.096  43.364  11.739  0.00  0.00    +0.041 C 
BRANCH  74  75
ATOM     75  CG  MET A   2      12.280  43.803  10.557  0.00  0.00    +0.060 C 
BRANCH  75  76
ATOM     76  SD  MET A   2      12.734  42.925   9.059  0.00  0.00    -0.139 S 
ATOM     77  CE  MET A   2      14.100  43.953   8.522  0.00  0.00    +0.069 C 
ENDBRANCH  75  76
ENDBRANCH  74  75
ENDBRANCH  58  74
ENDBRANCH  54  58
ENDBRANCH  53  56
BRANCH  53  78
ATOM     78  CB  ILE A   3      14.142  38.310  14.565  0.00  0.00    +0.027 C 
ATOM     79  CG2 ILE A   3      13.192  38.776  15.700  0.00  0.00    +0.002 C 
BRANCH  78  80
ATOM     80  CG1 ILE A   3      13.432  37.367  13.597  0.00  0.00    +0.002 C 
ATOM     81  CD1 ILE A   3      13.061  36.042  14.230  0.00  0.00    +0.000 C 
ENDBRANCH  78  80
ENDBRANCH  53  78
ENDBRANCH  49  53
ENDBRANCH  48  50
ENDBRANCH  44  48
ENDBRANCH  43  46
ENDBRANCH   1  43
TORSDOF 36
REMARK  Name = ../refined-set-2016/3mxe/3mxe_pocket.pdb
REMARK  229 active torsions:
REMARK  status: ('A' for Active; 'I' for Inactive)
REMARK    1  A    between atoms: _1  and  _3
REMARK    2  A    between atoms: _3  and  _4
REMARK    3  A    between atoms: _3  and  _6
REMARK    4  A    between atoms: _6  and  _7
REMARK    5  A    between atoms: _7  and  _8
REMARK    6  A    between atoms: _8  and  _9
REMARK    7  A    between atoms: _18  and  _20
REMARK    8  A    between atoms: _20  and  _21
REMARK    9  A    between atoms: _20  and  _23
REMARK   10  A    between atoms: _23  and  _24
REMARK   11  A    between atoms: _27  and  _29
REMARK   12  A    between atoms: _29  and  _30
REMARK   13  A    between atoms: _29  and  _32
REMARK   14  A    between atoms: _32  and  _33
REMARK   15  A    between atoms: _36  and  _38
REMARK   16  A    between atoms: _38  and  _39
REMARK   17  A    between atoms: _38  and  _41
REMARK   18  A    between atoms: _41  and  _42
REMARK   19  A    between atoms: _45  and  _47
REMARK   20  A    between atoms: _47  and  _48
REMARK   21  A    between atoms: _47  and  _50
REMARK   22  A    between atoms: _50  and  _51
REMARK   23  A    between atoms: _54  and  _56
REMARK   24  A    between atoms: _56  and  _57
REMARK   25  A    between atoms: _59  and  _61
REMARK   26  A    between atoms: _61  and  _62
REMARK   27  A    between atoms: _65  and  _67
REMARK   28  A    between atoms: _67  and  _68
REMARK   29  A    between atoms: _67  and  _70
REMARK   30  A    between atoms: _70  and  _71
REMARK   31  A    between atoms: _74  and  _76
REMARK   32  A    between atoms: _76  and  _77
REMARK   33  A    between atoms: _76  and  _79
REMARK   34  A    between atoms: _79  and  _80
REMARK   35  A    between atoms: _83  and  _85
REMARK   36  A    between atoms: _85  and  _86
REMARK   37  A    between atoms: _85  and  _88
REMARK   38  A    between atoms: _88  and  _89
REMARK   39  A    between atoms: _92  and  _94
REMARK   40  A    between atoms: _94  and  _95
REMARK   41  A    between atoms: _94  and  _97
REMARK   42  A    between atoms: _100  and  _102
REMARK   43  A    between atoms: _102  and  _103
REMARK   44  A    between atoms: _102  and  _105
REMARK   45  A    between atoms: _105  and  _106
REMARK   46  A    between atoms: _106  and  _107
REMARK   47  A    between atoms: _107  and  _108
REMARK   48  A    between atoms: _108  and  _109
REMARK   49  A    between atoms: _113  and  _115
REMARK   50  A    between atoms: _115  and  _116
REMARK   51  A    between atoms: _115  and  _118
REMARK   52  A    between atoms: _118  and  _119
REMARK   53  A    between atoms: _119  and  _120
REMARK   54  A    between atoms: _122  and  _124
REMARK   55  A    between atoms: _124  and  _125
REMARK   56  A    between atoms: _124  and  _127
REMARK   57  A    between atoms: _127  and  _128
REMARK   58  A    between atoms: _131  and  _133
REMARK   59  A    between atoms: _133  and  _134
REMARK   60  A    between atoms: _136  and  _138
REMARK   61  A    between atoms: _138  and  _139
REMARK   62  A    between atoms: _141  and  _143
REMARK   63  A    between atoms: _143  and  _144
REMARK   64  A    between atoms: _143  and  _146
REMARK   65  A    between atoms: _146  and  _147
REMARK   66  A    between atoms: _150  and  _152
REMARK   67  A    between atoms: _152  and  _153
REMARK   68  A    between atoms: _155  and  _157
REMARK   69  A    between atoms: _157  and  _158
REMARK   70  A    between atoms: _160  and  _162
REMARK   71  A    between atoms: _162  and  _163
REMARK   72  A    between atoms: _162  and  _165
REMARK   73  A    between atoms: _165  and  _166
REMARK   74  A    between atoms: _172  and  _174
REMARK   75  A    between atoms: _174  and  _175
REMARK   76  A    between atoms: _174  and  _177
REMARK   77  A    between atoms: _177  and  _178
REMARK   78  A    between atoms: _181  and  _183
REMARK   79  A    between atoms: _183  and  _184
REMARK   80  A    between atoms: _183  and  _186
REMARK   81  A    between atoms: _189  and  _191
REMARK   82  A    between atoms: _191  and  _192
REMARK   83  A    between atoms: _191  and  _194
REMARK   84  A    between atoms: _194  and  _195
REMARK   85  A    between atoms: _198  and  _200
REMARK   86  A    between atoms: _200  and  _201
REMARK   87  A    between atoms: _200  and  _203
REMARK   88  A    between atoms: _203  and  _204
REMARK   89  A    between atoms: _208  and  _209
REMARK   90  A    between atoms: _214  and  _216
REMARK   91  A    between atoms: _216  and  _217
REMARK   92  A    between atoms: _216  and  _219
REMARK   93  A    between atoms: _222  and  _224
REMARK   94  A    between atoms: _224  and  _225
REMARK   95  A    between atoms: _224  and  _227
REMARK   96  A    between atoms: _227  and  _228
REMARK   97  A    between atoms: _233  and  _235
REMARK   98  A    between atoms: _235  and  _236
REMARK   99  A    between atoms: _235  and  _238
REMARK  100  A    between atoms: _238  and  _239
REMARK  101  A    between atoms: _242  and  _244
REMARK  102  A    between atoms: _244  and  _245
REMARK  103  A    between atoms: _244  and  _247
REMARK  104  A    between atoms: _247  and  _248
REMARK  105  A    between atoms: _251  and  _253
REMARK  106  A    between atoms: _253  and  _254
REMARK  107  A    between atoms: _256  and  _258
REMARK  108  A    between atoms: _258  and  _259
REMARK  109  A    between atoms: _258  and  _261
REMARK  110  A    between atoms: _261  and  _262
REMARK  111  A    between atoms: _262  and  _263
REMARK  112  A    between atoms: _263  and  _264
REMARK  113  A    between atoms: _273  and  _275
REMARK  114  A    between atoms: _275  and  _276
REMARK  115  A    between atoms: _275  and  _278
REMARK  116  A    between atoms: _278  and  _279
REMARK  117  A    between atoms: _284  and  _286
REMARK  118  A    between atoms: _286  and  _287
REMARK  119  A    between atoms: _286  and  _289
REMARK  120  A    between atoms: _289  and  _290
REMARK  121  A    between atoms: _290  and  _291
REMARK  122  A    between atoms: _291  and  _292
REMARK  123  A    between atoms: _301  and  _303
REMARK  124  A    between atoms: _303  and  _304
REMARK  125  A    between atoms: _303  and  _306
REMARK  126  A    between atoms: _306  and  _307
REMARK  127  A    between atoms: _310  and  _312
REMARK  128  A    between atoms: _312  and  _313
REMARK  129  A    between atoms: _312  and  _315
REMARK  130  A    between atoms: _315  and  _316
REMARK  131  A    between atoms: _319  and  _321
REMARK  132  A    between atoms: _321  and  _322
REMARK  133  A    between atoms: _321  and  _324
REMARK  134  A    between atoms: _324  and  _325
REMARK  135  A    between atoms: _328  and  _330
REMARK  136  A    between atoms: _330  and  _331
REMARK  137  A    between atoms: _330  and  _333
REMARK  138  A    between atoms: _333  and  _334
REMARK  139  A    between atoms: _337  and  _339
REMARK  140  A    between atoms: _339  and  _340
REMARK  141  A    between atoms: _342  and  _344
REMARK  142  A    between atoms: _344  and  _345
REMARK  143  A    between atoms: _348  and  _350
REMARK  144  A    between atoms: _350  and  _351
REMARK  145  A    between atoms: _350  and  _353
REMARK  146  A    between atoms: _353  and  _354
REMARK  147  A    between atoms: _357  and  _359
REMARK  148  A    between atoms: _359  and  _360
REMARK  149  A    between atoms: _359  and  _362
REMARK  150  A    between atoms: _362  and  _363
REMARK  151  A    between atoms: _366  and  _368
REMARK  152  A    between atoms: _368  and  _369
REMARK  153  A    between atoms: _368  and  _371
REMARK  154  A    between atoms: _371  and  _372
REMARK  155  A    between atoms: _375  and  _377
REMARK  156  A    between atoms: _377  and  _378
REMARK  157  A    between atoms: _377  and  _380
REMARK  158  A    between atoms: _383  and  _385
REMARK  159  A    between atoms: _385  and  _386
REMARK  160  A    between atoms: _385  and  _388
REMARK  161  A    between atoms: _388  and  _389
REMARK  162  A    between atoms: _389  and  _390
REMARK  163  A    between atoms: _390  and  _391
REMARK  164  A    between atoms: _391  and  _392
REMARK  165  A    between atoms: _396  and  _398
REMARK  166  A    between atoms: _398  and  _399
REMARK  167  A    between atoms: _398  and  _401
REMARK  168  A    between atoms: _401  and  _402
REMARK  169  A    between atoms: _402  and  _403
REMARK  170  A    between atoms: _405  and  _407
REMARK  171  A    between atoms: _407  and  _408
REMARK  172  A    between atoms: _407  and  _410
REMARK  173  A    between atoms: _410  and  _411
REMARK  174  A    between atoms: _414  and  _416
REMARK  175  A    between atoms: _416  and  _417
REMARK  176  A    between atoms: _419  and  _421
REMARK  177  A    between atoms: _421  and  _422
REMARK  178  A    between atoms: _424  and  _426
REMARK  179  A    between atoms: _426  and  _427
REMARK  180  A    between atoms: _426  and  _429
REMARK  181  A    between atoms: _429  and  _430
REMARK  182  A    between atoms: _433  and  _435
REMARK  183  A    between atoms: _435  and  _436
REMARK  184  A    between atoms: _438  and  _440
REMARK  185  A    between atoms: _440  and  _441
REMARK  186  A    between atoms: _443  and  _445
REMARK  187  A    between atoms: _445  and  _446
REMARK  188  A    between atoms: _445  and  _448
REMARK  189  A    between atoms: _448  and  _449
REMARK  190  A    between atoms: _455  and  _457
REMARK  191  A    between atoms: _457  and  _458
REMARK  192  A    between atoms: _457  and  _460
REMARK  193  A    between atoms: _460  and  _461
REMARK  194  A    between atoms: _464  and  _466
REMARK  195  A    between atoms: _466  and  _467
REMARK  196  A    between atoms: _466  and  _469
REMARK  197  A    between atoms: _469  and  _470
REMARK  198  A    between atoms: _473  and  _475
REMARK  199  A    between atoms: _475  and  _476
REMARK  200  A    between atoms: _475  and  _478
REMARK  201  A    between atoms: _478  and  _479
REMARK  202  A    between atoms: _483  and  _484
REMARK  203  A    between atoms: _489  and  _491
REMARK  204  A    between atoms: _491  and  _492
REMARK  205  A    between atoms: _491  and  _494
REMARK  206  A    between atoms: _497  and  _499
REMARK  207  A    between atoms: _499  and  _500
REMARK  208  A    between atoms: _499  and  _502
REMARK  209  A    between atoms: _502  and  _503
REMARK  210  A    between atoms: _508  and  _510
REMARK  211  A    between atoms: _510  and  _511
REMARK  212  A    between atoms: _510  and  _513
REMARK  213  A    between atoms: _513  and  _514
REMARK  214  A    between atoms: _517  and  _519
REMARK  215  A    between atoms: _519  and  _520
REMARK  216  A    between atoms: _519  and  _522
REMARK  217  A    between atoms: _522  and  _523
REMARK  218  A    between atoms: _526  and  _528
REMARK  219  A    between atoms: _528  and  _529
REMARK  220  A    between atoms: _531  and  _533
REMARK  221  A    between atoms: _533  and  _534
REMARK  222  A    between atoms: _533  and  _536
REMARK  223  A    between atoms: _536  and  _537
REMARK  224  A    between atoms: _537  and  _538
REMARK  225  A    between atoms: _538  and  _539
REMARK  226  A    between atoms: _548  and  _550
REMARK  227  A    between atoms: _550  and  _551
REMARK  228  A    between atoms: _550  and  _553
REMARK  229  A    between atoms: _553  and  _554
REMARK                            x       y       z     vdW  Elec       q    Type
REMARK                         _______ _______ _______ _____ _____    ______ ____
ROOT
ATOM      1  CA  LEU A   1       6.978  35.194  16.285  0.00  0.00    +0.133 C 
ENDROOT
BRANCH   1   2
ATOM      2  N   LEU A   1       6.711  34.428  17.488  0.00  0.00    -0.239 NA
ATOM      3  H   LEU A   1       7.444  33.780  17.839  0.00  0.00    +0.142 HD
ENDBRANCH   1   2
BRANCH   1   4
ATOM      4  C   LEU A   1       6.662  34.339  15.068  0.00  0.00    +0.224 C 
ATOM      5  O   LEU A   1       7.099  33.191  14.969  0.00  0.00    -0.287 OA
ENDBRANCH   1   4
BRANCH   1   6
ATOM      6  CB  LEU A   1       8.437  35.654  16.226  0.00  0.00    +0.025 C 
BRANCH   6   7
ATOM      7  CG  LEU A   1       8.982  36.370  17.467  0.00  0.00    +0.002 C 
ATOM      8  CD2 LEU A   1       8.089  37.564  17.842  0.00  0.00    +0.000 C 
ATOM      9  CD1 LEU A   1      10.408  36.816  17.226  0.00  0.00    +0.000 C 
ENDBRANCH   6   7
ENDBRANCH   1   6
TORSDOF 4
REMARK  Name = ../refined-set-2016/3mxe/3mxe_pocket.pdb
REMARK  229 active torsions:
REMARK  status: ('A' for Active; 'I' for Inactive)
REMARK    1  A    between atoms: _1  and  _3
REMARK    2  A    between atoms: _3  and  _4
REMARK    3  A    between atoms: _3  and  _6
REMARK    4  A    between atoms: _6  and  _7
REMARK    5  A    between atoms: _7  and  _8
REMARK    6  A    between atoms: _8  and  _9
REMARK    7  A    between atoms: _18  and  _20
REMARK    8  A    between atoms: _20  and  _21
REMARK    9  A    between atoms: _20  and  _23
REMARK   10  A    between atoms: _23  and  _24
REMARK   11  A    between atoms: _27  and  _29
REMARK   12  A    between atoms: _29  and  _30
REMARK   13  A    between atoms: _29  and  _32
REMARK   14  A    between atoms: _32  and  _33
REMARK   15  A    between atoms: _36  and  _38
REMARK   16  A    between atoms: _38  and  _39
REMARK   17  A    between atoms: _38  and  _41
REMARK   18  A    between atoms: _41  and  _42
REMARK   19  A    between atoms: _45  and  _47
REMARK   20  A    between atoms: _47  and  _48
REMARK   21  A    between atoms: _47  and  _50
REMARK   22  A    between atoms: _50  and  _51
REMARK   23  A    between atoms: _54  and  _56
REMARK   24  A    between atoms: _56  and  _57
REMARK   25  A    between atoms: _59  and  _61
REMARK   26  A    between atoms: _61  and  _62
REMARK   27  A    between atoms: _65  and  _67
REMARK   28  A    between atoms: _67  and  _68
REMARK   29  A    between atoms: _67  and  _70
REMARK   30  A    between atoms: _70  and  _71
REMARK   31  A    between atoms: _74  and  _76
REMARK   32  A    between atoms: _76  and  _77
REMARK   33  A    between atoms: _76  and  _79
REMARK   34  A    between atoms: _79  and  _80
REMARK   35  A    between atoms: _83  and  _85
REMARK   36  A    between atoms: _85  and  _86
REMARK   37  A    between atoms: _85  and  _88
REMARK   38  A    between atoms: _88  and  _89
REMARK   39  A    between atoms: _92  and  _94
REMARK   40  A    between atoms: _94  and  _95
REMARK   41  A    between atoms: _94  and  _97
REMARK   42  A    between atoms: _100  and  _102
REMARK   43  A    between atoms: _102  and  _103
REMARK   44  A    between atoms: _102  and  _105
REMARK   45  A    between atoms: _105  and  _106
REMARK   46  A    between atoms: _106  and  _107
REMARK   47  A    between atoms: _107  and  _108
REMARK   48  A    between atoms: _108  and  _109
REMARK   49  A    between atoms: _113  and  _115
REMARK   50  A    between atoms: _115  and  _116
REMARK   51  A    between atoms: _115  and  _118
REMARK   52  A    between atoms: _118  and  _119
REMARK   53  A    between atoms: _119  and  _120
REMARK   54  A    between atoms: _122  and  _124
REMARK   55  A    between atoms: _124  and  _125
REMARK   56  A    between atoms: _124  and  _127
REMARK   57  A    between atoms: _127  and  _128
REMARK   58  A    between atoms: _131  and  _133
REMARK   59  A    between atoms: _133  and  _134
REMARK   60  A    between atoms: _136  and  _138
REMARK   61  A    between atoms: _138  and  _139
REMARK   62  A    between atoms: _141  and  _143
REMARK   63  A    between atoms: _143  and  _144
REMARK   64  A    between atoms: _143  and  _146
REMARK   65  A    between atoms: _146  and  _147
REMARK   66  A    between atoms: _150  and  _152
REMARK   67  A    between atoms: _152  and  _153
REMARK   68  A    between atoms: _155  and  _157
REMARK   69  A    between atoms: _157  and  _158
REMARK   70  A    between atoms: _160  and  _162
REMARK   71  A    between atoms: _162  and  _163
REMARK   72  A    between atoms: _162  and  _165
REMARK   73  A    between atoms: _165  and  _166
REMARK   74  A    between atoms: _172  and  _174
REMARK   75  A    between atoms: _174  and  _175
REMARK   76  A    between atoms: _174  and  _177
REMARK   77  A    between atoms: _177  and  _178
REMARK   78  A    between atoms: _181  and  _183
REMARK   79  A    between atoms: _183  and  _184
REMARK   80  A    between atoms: _183  and  _186
REMARK   81  A    between atoms: _189  and  _191
REMARK   82  A    between atoms: _191  and  _192
REMARK   83  A    between atoms: _191  and  _194
REMARK   84  A    between atoms: _194  and  _195
REMARK   85  A    between atoms: _198  and  _200
REMARK   86  A    between atoms: _200  and  _201
REMARK   87  A    between atoms: _200  and  _203
REMARK   88  A    between atoms: _203  and  _204
REMARK   89  A    between atoms: _208  and  _209
REMARK   90  A    between atoms: _214  and  _216
REMARK   91  A    between atoms: _216  and  _217
REMARK   92  A    between atoms: _216  and  _219
REMARK   93  A    between atoms: _222  and  _224
REMARK   94  A    between atoms: _224  and  _225
REMARK   95  A    between atoms: _224  and  _227
REMARK   96  A    between atoms: _227  and  _228
REMARK   97  A    between atoms: _233  and  _235
REMARK   98  A    between atoms: _235  and  _236
REMARK   99  A    between atoms: _235  and  _238
REMARK  100  A    between atoms: _238  and  _239
REMARK  101  A    between atoms: _242  and  _244
REMARK  102  A    between atoms: _244  and  _245
REMARK  103  A    between atoms: _244  and  _247
REMARK  104  A    between atoms: _247  and  _248
REMARK  105  A    between atoms: _251  and  _253
REMARK  106  A    between atoms: _253  and  _254
REMARK  107  A    between atoms: _256  and  _258
REMARK  108  A    between atoms: _258  and  _259
REMARK  109  A    between atoms: _258  and  _261
REMARK  110  A    between atoms: _261  and  _262
REMARK  111  A    between atoms: _262  and  _263
REMARK  112  A    between atoms: _263  and  _264
REMARK  113  A    between atoms: _273  and  _275
REMARK  114  A    between atoms: _275  and  _276
REMARK  115  A    between atoms: _275  and  _278
REMARK  116  A    between atoms: _278  and  _279
REMARK  117  A    between atoms: _284  and  _286
REMARK  118  A    between atoms: _286  and  _287
REMARK  119  A    between atoms: _286  and  _289
REMARK  120  A    between atoms: _289  and  _290
REMARK  121  A    between atoms: _290  and  _291
REMARK  122  A    between atoms: _291  and  _292
REMARK  123  A    between atoms: _301  and  _303
REMARK  124  A    between atoms: _303  and  _304
REMARK  125  A    between atoms: _303  and  _306
REMARK  126  A    between atoms: _306  and  _307
REMARK  127  A    between atoms: _310  and  _312
REMARK  128  A    between atoms: _312  and  _313
REMARK  129  A    between atoms: _312  and  _315
REMARK  130  A    between atoms: _315  and  _316
REMARK  131  A    between atoms: _319  and  _321
REMARK  132  A    between atoms: _321  and  _322
REMARK  133  A    between atoms: _321  and  _324
REMARK  134  A    between atoms: _324  and  _325
REMARK  135  A    between atoms: _328  and  _330
REMARK  136  A    between atoms: _330  and  _331
REMARK  137  A    between atoms: _330  and  _333
REMARK  138  A    between atoms: _333  and  _334
REMARK  139  A    between atoms: _337  and  _339
REMARK  140  A    between atoms: _339  and  _340
REMARK  141  A    between atoms: _342  and  _344
REMARK  142  A    between atoms: _344  and  _345
REMARK  143  A    between atoms: _348  and  _350
REMARK  144  A    between atoms: _350  and  _351
REMARK  145  A    between atoms: _350  and  _353
REMARK  146  A    between atoms: _353  and  _354
REMARK  147  A    between atoms: _357  and  _359
REMARK  148  A    between atoms: _359  and  _360
REMARK  149  A    between atoms: _359  and  _362
REMARK  150  A    between atoms: _362  and  _363
REMARK  151  A    between atoms: _366  and  _368
REMARK  152  A    between atoms: _368  and  _369
REMARK  153  A    between atoms: _368  and  _371
REMARK  154  A    between atoms: _371  and  _372
REMARK  155  A    between atoms: _375  and  _377
REMARK  156  A    between atoms: _377  and  _378
REMARK  157  A    between atoms: _377  and  _380
REMARK  158  A    between atoms: _383  and  _385
REMARK  159  A    between atoms: _385  and  _386
REMARK  160  A    between atoms: _385  and  _388
REMARK  161  A    between atoms: _388  and  _389
REMARK  162  A    between atoms: _389  and  _390
REMARK  163  A    between atoms: _390  and  _391
REMARK  164  A    between atoms: _391  and  _392
REMARK  165  A    between atoms: _396  and  _398
REMARK  166  A    between atoms: _398  and  _399
REMARK  167  A    between atoms: _398  and  _401
REMARK  168  A    between atoms: _401  and  _402
REMARK  169  A    between atoms: _402  and  _403
REMARK  170  A    between atoms: _405  and  _407
REMARK  171  A    between atoms: _407  and  _408
REMARK  172  A    between atoms: _407  and  _410
REMARK  173  A    between atoms: _410  and  _411
REMARK  174  A    between atoms: _414  and  _416
REMARK  175  A    between atoms: _416  and  _417
REMARK  176  A    between atoms: _419  and  _421
REMARK  177  A    between atoms: _421  and  _422
REMARK  178  A    between atoms: _424  and  _426
REMARK  179  A    between atoms: _426  and  _427
REMARK  180  A    between atoms: _426  and  _429
REMARK  181  A    between atoms: _429  and  _430
REMARK  182  A    between atoms: _433  and  _435
REMARK  183  A    between atoms: _435  and  _436
REMARK  184  A    between atoms: _438  and  _440
REMARK  185  A    between atoms: _440  and  _441
REMARK  186  A    between atoms: _443  and  _445
REMARK  187  A    between atoms: _445  and  _446
REMARK  188  A    between atoms: _445  and  _448
REMARK  189  A    between atoms: _448  and  _449
REMARK  190  A    between atoms: _455  and  _457
REMARK  191  A    between atoms: _457  and  _458
REMARK  192  A    between atoms: _457  and  _460
REMARK  193  A    between atoms: _460  and  _461
REMARK  194  A    between atoms: _464  and  _466
REMARK  195  A    between atoms: _466  and  _467
REMARK  196  A    between atoms: _466  and  _469
REMARK  197  A    between atoms: _469  and  _470
REMARK  198  A    between atoms: _473  and  _475
REMARK  199  A    between atoms: _475  and  _476
REMARK  200  A    between atoms: _475  and  _478
REMARK  201  A    between atoms: _478  and  _479
REMARK  202  A    between atoms: _483  and  _484
REMARK  203  A    between atoms: _489  and  _491
REMARK  204  A    between atoms: _491  and  _492
REMARK  205  A    between atoms: _491  and  _494
REMARK  206  A    between atoms: _497  and  _499
REMARK  207  A    between atoms: _499  and  _500
REMARK  208  A    between atoms: _499  and  _502
REMARK  209  A    between atoms: _502  and  _503
REMARK  210  A    between atoms: _508  and  _510
REMARK  211  A    between atoms: _510  and  _511
REMARK  212  A    between atoms: _510  and  _513
REMARK  213  A    between atoms: _513  and  _514
REMARK  214  A    between atoms: _517  and  _519
REMARK  215  A    between atoms: _519  and  _520
REMARK  216  A    between atoms: _519  and  _522
REMARK  217  A    between atoms: _522  and  _523
REMARK  218  A    between atoms: _526  and  _528
REMARK  219  A    between atoms: _528  and  _529
REMARK  220  A    between atoms: _531  and  _533
REMARK  221  A    between atoms: _533  and  _534
REMARK  222  A    between atoms: _533  and  _536
REMARK  223  A    between atoms: _536  and  _537
REMARK  224  A    between atoms: _537  and  _538
REMARK  225  A    between atoms: _538  and  _539
REMARK  226  A    between atoms: _548  and  _550
REMARK  227  A    between atoms: _550  and  _551
REMARK  228  A    between atoms: _550  and  _553
REMARK  229  A    between atoms: _553  and  _554
REMARK                            x       y       z     vdW  Elec       q    Type
REMARK                         _______ _______ _______ _____ _____    ______ ____
ROOT
ATOM      1  C   ILE A   5      11.531  27.610  17.821  0.00  0.00    +0.241 C 
ATOM      2  N   ILE A   6      11.698  26.677  18.767  0.00  0.00    -0.297 N 
ATOM      3  H   ILE A   6      12.105  25.756  18.507  0.00  0.00    +0.150 HD
ATOM      4  O   ILE A   5      10.838  28.627  17.979  0.00  0.00    -0.273 OA
ENDROOT
BRANCH   2   5
ATOM      5  CA  ILE A   6      11.319  26.927  20.161  0.00  0.00    +0.149 C 
BRANCH   5   6
ATOM      6  C   ILE A   6      12.472  27.610  20.905  0.00  0.00    +0.241 C 
ATOM      7  N   GLY A   7      12.261  28.880  21.252  0.00  0.00    -0.295 N 
ATOM      8  H   GLY A   7      11.319  29.294  21.100  0.00  0.00    +0.150 HD
ATOM      9  O   ILE A   6      13.528  27.006  21.150  0.00  0.00    -0.273 OA
BRANCH   7  10
ATOM     10  CA  GLY A   7      13.309  29.706  21.837  0.00  0.00    +0.176 C 
BRANCH  10  11
ATOM     11  C   GLY A   7      13.251  29.684  23.348  0.00  0.00    +0.243 C 
ATOM     12  N   ARG A   8      14.202  30.375  23.976  0.00  0.00    -0.297 N 
ATOM     13  H   ARG A   8      14.849  30.962  23.412  0.00  0.00    +0.150 HD
ATOM     14  O   GLY A   7      12.341  29.086  23.930  0.00  0.00    -0.273 OA
BRANCH  12  15
ATOM     15  CA  ARG A   8      14.370  30.339  25.422  0.00  0.00    +0.149 C 
BRANCH  15  16
ATOM     16  C   ARG A   8      13.138  30.820  26.191  0.00  0.00    +0.241 C 
ATOM     17  O   ARG A   8      12.908  30.368  27.297  0.00  0.00    -0.273 OA
ATOM     18  N   ASN A   9      12.351  31.727  25.614  0.00  0.00    -0.298 N 
ATOM     19  H   ASN A   9      12.594  32.100  24.674  0.00  0.00    +0.150 HD
BRANCH  18  20
ATOM     20  CA  ASN A   9      11.149  32.199  26.295  0.00  0.00    +0.146 C 
BRANCH  20  21
ATOM     21  C   ASN A   9      10.195  31.050  26.676  0.00  0.00    +0.227 C 
ATOM     22  O   ASN A   9       9.523  31.126  27.703  0.00  0.00    -0.286 OA
ENDBRANCH  20  21
BRANCH  20  23
ATOM     23  CB  ASN A   9      10.415  33.270  25.469  0.00  0.00    +0.112 C 
BRANCH  23  24
ATOM     24  CG  ASN A   9       9.778  32.712  24.211  0.00  0.00    +0.222 C 
ATOM     25  ND2 ASN A   9       8.489  33.009  24.017  0.00  0.00    -0.329 N 
ATOM     26 HD21 ASN A   9       7.977  33.585  24.716  0.00  0.00    +0.145 HD
ATOM     27 HD22 ASN A   9       7.998  32.664  23.167  0.00  0.00    +0.145 HD
ATOM     28  OD1 ASN A   9      10.436  32.033  23.416  0.00  0.00    -0.275 OA
ENDBRANCH  23  24
ENDBRANCH  20  23
ENDBRANCH  18  20
ENDBRANCH  15  16
BRANCH  15  29
ATOM     29  CB  ARG A   8      15.592  31.156  25.864  0.00  0.00    +0.033 C 
BRANCH  29  30
ATOM     30  CG  ARG A   8      16.919  30.555  25.430  0.00  0.00    +0.045 C 
BRANCH  30  31
ATOM     31  CD  ARG A   8      18.136  31.344  25.955  0.00  0.00    +0.174 C 
BRANCH  31  32
ATOM     32  NE  ARG A   8      18.144  32.747  25.525  0.00  0.00    -0.265 N 
ATOM     33  CZ  ARG A   8      17.788  33.805  26.262  0.00  0.00    +0.342 C 
ATOM     34  NH2 ARG A   8      17.361  33.688  27.517  0.00  0.00    -0.292 N 
ATOM     35 HH21 ARG A   8      17.094  34.536  28.056  0.00  0.00    +0.255 HD
ATOM     36 HH22 ARG A   8      17.295  32.749  27.958  0.00  0.00    +0.255 HD
ATOM     37  NH1 ARG A   8      17.849  35.019  25.722  0.00  0.00    -0.292 N 
ATOM     38 HH11 ARG A   8      17.576  35.852  26.282  0.00  0.00    +0.255 HD
ATOM     39 HH12 ARG A   8      18.170  35.136  24.740  0.00  0.00    +0.255 HD
ATOM     40  HE  ARG A   8      18.457  32.937  24.552  0.00  0.00    +0.259 HD
ENDBRANCH  31  32
ENDBRANCH  30  31
ENDBRANCH  29  30
ENDBRANCH  15  29
ENDBRANCH  12  15
ENDBRANCH  10  11
ENDBRANCH   7  10
ENDBRANCH   5   6
BRANCH   5  41
ATOM     41  CB  ILE A   6      10.930  25.650  20.919  0.00  0.00    +0.027 C 
ATOM     42  CG2 ILE A   6      10.416  26.009  22.318  0.00  0.00    +0.002 C 
BRANCH  41  43
ATOM     43  CG1 ILE A   6       9.874  24.863  20.148  0.00  0.00    +0.002 C 
ATOM     44  CD1 ILE A   6       8.640  25.683  19.740  0.00  0.00    +0.000 C 
ENDBRANCH  41  43
ENDBRANCH   5  41
ENDBRANCH   2   5
BRANCH   1  45
ATOM     45  CA  ILE A   5      12.194  27.336  16.474  0.00  0.00    +0.149 C 
BRANCH  45  47
ATOM     46  C   ASN A   4      11.110  26.066  14.673  0.00  0.00    +0.241 C 
ATOM     47  N   ILE A   5      11.163  27.140  15.462  0.00  0.00    -0.297 N 
ATOM     48  H   ILE A   5      10.434  27.873  15.350  0.00  0.00    +0.150 HD
ATOM     49  O   ASN A   4      11.792  25.051  14.848  0.00  0.00    -0.273 OA
BRANCH  46  50
ATOM     50  CA  ASN A   4      10.117  26.120  13.521  0.00  0.00    +0.158 C 
BRANCH  50  52
ATOM     51  C   VAL A   3      11.566  26.466  11.598  0.00  0.00    +0.241 C 
ATOM     52  N   ASN A   4      10.814  25.649  12.330  0.00  0.00    -0.297 N 
ATOM     53  H   ASN A   4      10.721  24.653  12.047  0.00  0.00    +0.150 HD
ATOM     54  O   VAL A   3      11.628  27.686  11.797  0.00  0.00    -0.273 OA
BRANCH  51  55
ATOM     55  CA  VAL A   3      12.360  25.819  10.472  0.00  0.00    +0.149 C 
BRANCH  55  57
ATOM     56  C   PRO A   2      12.416  26.461   8.107  0.00  0.00    +0.241 C 
ATOM     57  N   VAL A   3      12.563  26.776   9.391  0.00  0.00    -0.297 N 
ATOM     58  H   VAL A   3      12.835  27.750   9.635  0.00  0.00    +0.150 HD
ATOM     59  O   PRO A   2      12.117  25.326   7.713  0.00  0.00    -0.273 OA
BRANCH  56  66
ATOM     60  C   THR A   1      11.464  29.540   7.984  0.00  0.00    +0.244 C 
ATOM     61  O   THR A   1      10.372  29.017   7.772  0.00  0.00    -0.273 OA
ATOM     62  N   PRO A   2      12.628  28.953   7.640  0.00  0.00    -0.272 N 
ATOM     63  CD  PRO A   2      13.974  29.550   7.753  0.00  0.00    +0.094 C 
ATOM     64  CG  PRO A   2      14.905  28.426   7.341  0.00  0.00    +0.024 C 
ATOM     65  CB  PRO A   2      14.099  27.470   6.537  0.00  0.00    +0.031 C 
ATOM     66  CA  PRO A   2      12.670  27.584   7.090  0.00  0.00    +0.152 C 
BRANCH  60  67
ATOM     67  CA  THR A   1      11.533  30.901   8.687  0.00  0.00    +0.172 C 
BRANCH  67  68
ATOM     68  N   THR A   1      10.409  31.712   8.232  0.00  0.00    -0.236 NA
ATOM     69  H   THR A   1       9.522  31.690   8.775  0.00  0.00    +0.142 HD
ENDBRANCH  67  68
BRANCH  67  70
ATOM     70  CB  THR A   1      11.500  30.696  10.213  0.00  0.00    +0.135 C 
ATOM     71  CG2 THR A   1      10.146  30.126  10.672  0.00  0.00    +0.034 C 
BRANCH  70  72
ATOM     72  OG1 THR A   1      12.576  29.833  10.612  0.00  0.00    -0.383 OA
ATOM     73  HG1 THR A   1      12.549  29.706  11.593  0.00  0.00    +0.210 HD
ENDBRANCH  70  72
ENDBRANCH  67  70
ENDBRANCH  60  67
ENDBRANCH  56  66
ENDBRANCH  55  57
BRANCH  55  74
ATOM     74  CB  VAL A   3      13.706  25.303  11.037  0.00  0.00    +0.027 C 
ATOM     75  CG2 VAL A   3      14.549  26.456  11.596  0.00  0.00    +0.002 C 
ATOM     76  CG1 VAL A   3      14.473  24.546   9.969  0.00  0.00    +0.002 C 
ENDBRANCH  55  74
ENDBRANCH  51  55
ENDBRANCH  50  52
BRANCH  50  77
ATOM     77  CB  ASN A   4       8.894  25.253  13.834  0.00  0.00    +0.114 C 
BRANCH  77  78
ATOM     78  CG  ASN A   4       7.797  25.371  12.781  0.00  0.00    +0.222 C 
ATOM     79  OD1 ASN A   4       7.251  26.445  12.566  0.00  0.00    -0.275 OA
ATOM     80  ND2 ASN A   4       7.470  24.259  12.126  0.00  0.00    -0.329 N 
ATOM     81 HD21 ASN A   4       7.959  23.367  12.340  0.00  0.00    +0.145 HD
ATOM     82 HD22 ASN A   4       6.725  24.283  11.401  0.00  0.00    +0.145 HD
ENDBRANCH  77  78
ENDBRANCH  50  77
ENDBRANCH  46  50
ENDBRANCH  45  47
BRANCH  45  83
ATOM     83  CB  ILE A   5      13.136  28.501  16.072  0.00  0.00    +0.027 C 
ATOM     84  CG2 ILE A   5      14.108  28.877  17.212  0.00  0.00    +0.002 C 
BRANCH  83  85
ATOM     85  CG1 ILE A   5      13.909  28.134  14.796  0.00  0.00    +0.002 C 
ATOM     86  CD1 ILE A   5      14.493  29.313  14.037  0.00  0.00    +0.000 C 
ENDBRANCH  83  85
ENDBRANCH  45  83
ENDBRANCH   1  45
TORSDOF 32
REMARK  Name = ../refined-set-2016/3mxe/3mxe_pocket.pdb
REMARK  229 active torsions:
REMARK  status: ('A' for Active; 'I' for Inactive)
REMARK    1  A    between atoms: _1  and  _3
REMARK    2  A    between atoms: _3  and  _4
REMARK    3  A    between atoms: _3  and  _6
REMARK    4  A    between atoms: _6  and  _7
REMARK    5  A    between atoms: _7  and  _8
REMARK    6  A    between atoms: _8  and  _9
REMARK    7  A    between atoms: _18  and  _20
REMARK    8  A    between atoms: _20  and  _21
REMARK    9  A    between atoms: _20  and  _23
REMARK   10  A    between atoms: _23  and  _24
REMARK   11  A    between atoms: _27  and  _29
REMARK   12  A    between atoms: _29  and  _30
REMARK   13  A    between atoms: _29  and  _32
REMARK   14  A    between atoms: _32  and  _33
REMARK   15  A    between atoms: _36  and  _38
REMARK   16  A    between atoms: _38  and  _39
REMARK   17  A    between atoms: _38  and  _41
REMARK   18  A    between atoms: _41  and  _42
REMARK   19  A    between atoms: _45  and  _47
REMARK   20  A    between atoms: _47  and  _48
REMARK   21  A    between atoms: _47  and  _50
REMARK   22  A    between atoms: _50  and  _51
REMARK   23  A    between atoms: _54  and  _56
REMARK   24  A    between atoms: _56  and  _57
REMARK   25  A    between atoms: _59  and  _61
REMARK   26  A    between atoms: _61  and  _62
REMARK   27  A    between atoms: _65  and  _67
REMARK   28  A    between atoms: _67  and  _68
REMARK   29  A    between atoms: _67  and  _70
REMARK   30  A    between atoms: _70  and  _71
REMARK   31  A    between atoms: _74  and  _76
REMARK   32  A    between atoms: _76  and  _77
REMARK   33  A    between atoms: _76  and  _79
REMARK   34  A    between atoms: _79  and  _80
REMARK   35  A    between atoms: _83  and  _85
REMARK   36  A    between atoms: _85  and  _86
REMARK   37  A    between atoms: _85  and  _88
REMARK   38  A    between atoms: _88  and  _89
REMARK   39  A    between atoms: _92  and  _94
REMARK   40  A    between atoms: _94  and  _95
REMARK   41  A    between atoms: _94  and  _97
REMARK   42  A    between atoms: _100  and  _102
REMARK   43  A    between atoms: _102  and  _103
REMARK   44  A    between atoms: _102  and  _105
REMARK   45  A    between atoms: _105  and  _106
REMARK   46  A    between atoms: _106  and  _107
REMARK   47  A    between atoms: _107  and  _108
REMARK   48  A    between atoms: _108  and  _109
REMARK   49  A    between atoms: _113  and  _115
REMARK   50  A    between atoms: _115  and  _116
REMARK   51  A    between atoms: _115  and  _118
REMARK   52  A    between atoms: _118  and  _119
REMARK   53  A    between atoms: _119  and  _120
REMARK   54  A    between atoms: _122  and  _124
REMARK   55  A    between atoms: _124  and  _125
REMARK   56  A    between atoms: _124  and  _127
REMARK   57  A    between atoms: _127  and  _128
REMARK   58  A    between atoms: _131  and  _133
REMARK   59  A    between atoms: _133  and  _134
REMARK   60  A    between atoms: _136  and  _138
REMARK   61  A    between atoms: _138  and  _139
REMARK   62  A    between atoms: _141  and  _143
REMARK   63  A    between atoms: _143  and  _144
REMARK   64  A    between atoms: _143  and  _146
REMARK   65  A    between atoms: _146  and  _147
REMARK   66  A    between atoms: _150  and  _152
REMARK   67  A    between atoms: _152  and  _153
REMARK   68  A    between atoms: _155  and  _157
REMARK   69  A    between atoms: _157  and  _158
REMARK   70  A    between atoms: _160  and  _162
REMARK   71  A    between atoms: _162  and  _163
REMARK   72  A    between atoms: _162  and  _165
REMARK   73  A    between atoms: _165  and  _166
REMARK   74  A    between atoms: _172  and  _174
REMARK   75  A    between atoms: _174  and  _175
REMARK   76  A    between atoms: _174  and  _177
REMARK   77  A    between atoms: _177  and  _178
REMARK   78  A    between atoms: _181  and  _183
REMARK   79  A    between atoms: _183  and  _184
REMARK   80  A    between atoms: _183  and  _186
REMARK   81  A    between atoms: _189  and  _191
REMARK   82  A    between atoms: _191  and  _192
REMARK   83  A    between atoms: _191  and  _194
REMARK   84  A    between atoms: _194  and  _195
REMARK   85  A    between atoms: _198  and  _200
REMARK   86  A    between atoms: _200  and  _201
REMARK   87  A    between atoms: _200  and  _203
REMARK   88  A    between atoms: _203  and  _204
REMARK   89  A    between atoms: _208  and  _209
REMARK   90  A    between atoms: _214  and  _216
REMARK   91  A    between atoms: _216  and  _217
REMARK   92  A    between atoms: _216  and  _219
REMARK   93  A    between atoms: _222  and  _224
REMARK   94  A    between atoms: _224  and  _225
REMARK   95  A    between atoms: _224  and  _227
REMARK   96  A    between atoms: _227  and  _228
REMARK   97  A    between atoms: _233  and  _235
REMARK   98  A    between atoms: _235  and  _236
REMARK   99  A    between atoms: _235  and  _238
REMARK  100  A    between atoms: _238  and  _239
REMARK  101  A    between atoms: _242  and  _244
REMARK  102  A    between atoms: _244  and  _245
REMARK  103  A    between atoms: _244  and  _247
REMARK  104  A    between atoms: _247  and  _248
REMARK  105  A    between atoms: _251  and  _253
REMARK  106  A    between atoms: _253  and  _254
REMARK  107  A    between atoms: _256  and  _258
REMARK  108  A    between atoms: _258  and  _259
REMARK  109  A    between atoms: _258  and  _261
REMARK  110  A    between atoms: _261  and  _262
REMARK  111  A    between atoms: _262  and  _263
REMARK  112  A    between atoms: _263  and  _264
REMARK  113  A    between atoms: _273  and  _275
REMARK  114  A    between atoms: _275  and  _276
REMARK  115  A    between atoms: _275  and  _278
REMARK  116  A    between atoms: _278  and  _279
REMARK  117  A    between atoms: _284  and  _286
REMARK  118  A    between atoms: _286  and  _287
REMARK  119  A    between atoms: _286  and  _289
REMARK  120  A    between atoms: _289  and  _290
REMARK  121  A    between atoms: _290  and  _291
REMARK  122  A    between atoms: _291  and  _292
REMARK  123  A    between atoms: _301  and  _303
REMARK  124  A    between atoms: _303  and  _304
REMARK  125  A    between atoms: _303  and  _306
REMARK  126  A    between atoms: _306  and  _307
REMARK  127  A    between atoms: _310  and  _312
REMARK  128  A    between atoms: _312  and  _313
REMARK  129  A    between atoms: _312  and  _315
REMARK  130  A    between atoms: _315  and  _316
REMARK  131  A    between atoms: _319  and  _321
REMARK  132  A    between atoms: _321  and  _322
REMARK  133  A    between atoms: _321  and  _324
REMARK  134  A    between atoms: _324  and  _325
REMARK  135  A    between atoms: _328  and  _330
REMARK  136  A    between atoms: _330  and  _331
REMARK  137  A    between atoms: _330  and  _333
REMARK  138  A    between atoms: _333  and  _334
REMARK  139  A    between atoms: _337  and  _339
REMARK  140  A    between atoms: _339  and  _340
REMARK  141  A    between atoms: _342  and  _344
REMARK  142  A    between atoms: _344  and  _345
REMARK  143  A    between atoms: _348  and  _350
REMARK  144  A    between atoms: _350  and  _351
REMARK  145  A    between atoms: _350  and  _353
REMARK  146  A    between atoms: _353  and  _354
REMARK  147  A    between atoms: _357  and  _359
REMARK  148  A    between atoms: _359  and  _360
REMARK  149  A    between atoms: _359  and  _362
REMARK  150  A    between atoms: _362  and  _363
REMARK  151  A    between atoms: _366  and  _368
REMARK  152  A    between atoms: _368  and  _369
REMARK  153  A    between atoms: _368  and  _371
REMARK  154  A    between atoms: _371  and  _372
REMARK  155  A    between atoms: _375  and  _377
REMARK  156  A    between atoms: _377  and  _378
REMARK  157  A    between atoms: _377  and  _380
REMARK  158  A    between atoms: _383  and  _385
REMARK  159  A    between atoms: _385  and  _386
REMARK  160  A    between atoms: _385  and  _388
REMARK  161  A    between atoms: _388  and  _389
REMARK  162  A    between atoms: _389  and  _390
REMARK  163  A    between atoms: _390  and  _391
REMARK  164  A    between atoms: _391  and  _392
REMARK  165  A    between atoms: _396  and  _398
REMARK  166  A    between atoms: _398  and  _399
REMARK  167  A    between atoms: _398  and  _401
REMARK  168  A    between atoms: _401  and  _402
REMARK  169  A    between atoms: _402  and  _403
REMARK  170  A    between atoms: _405  and  _407
REMARK  171  A    between atoms: _407  and  _408
REMARK  172  A    between atoms: _407  and  _410
REMARK  173  A    between atoms: _410  and  _411
REMARK  174  A    between atoms: _414  and  _416
REMARK  175  A    between atoms: _416  and  _417
REMARK  176  A    between atoms: _419  and  _421
REMARK  177  A    between atoms: _421  and  _422
REMARK  178  A    between atoms: _424  and  _426
REMARK  179  A    between atoms: _426  and  _427
REMARK  180  A    between atoms: _426  and  _429
REMARK  181  A    between atoms: _429  and  _430
REMARK  182  A    between atoms: _433  and  _435
REMARK  183  A    between atoms: _435  and  _436
REMARK  184  A    between atoms: _438  and  _440
REMARK  185  A    between atoms: _440  and  _441
REMARK  186  A    between atoms: _443  and  _445
REMARK  187  A    between atoms: _445  and  _446
REMARK  188  A    between atoms: _445  and  _448
REMARK  189  A    between atoms: _448  and  _449
REMARK  190  A    between atoms: _455  and  _457
REMARK  191  A    between atoms: _457  and  _458
REMARK  192  A    between atoms: _457  and  _460
REMARK  193  A    between atoms: _460  and  _461
REMARK  194  A    between atoms: _464  and  _466
REMARK  195  A    between atoms: _466  and  _467
REMARK  196  A    between atoms: _466  and  _469
REMARK  197  A    between atoms: _469  and  _470
REMARK  198  A    between atoms: _473  and  _475
REMARK  199  A    between atoms: _475  and  _476
REMARK  200  A    between atoms: _475  and  _478
REMARK  201  A    between atoms: _478  and  _479
REMARK  202  A    between atoms: _483  and  _484
REMARK  203  A    between atoms: _489  and  _491
REMARK  204  A    between atoms: _491  and  _492
REMARK  205  A    between atoms: _491  and  _494
REMARK  206  A    between atoms: _497  and  _499
REMARK  207  A    between atoms: _499  and  _500
REMARK  208  A    between atoms: _499  and  _502
REMARK  209  A    between atoms: _502  and  _503
REMARK  210  A    between atoms: _508  and  _510
REMARK  211  A    between atoms: _510  and  _511
REMARK  212  A    between atoms: _510  and  _513
REMARK  213  A    between atoms: _513  and  _514
REMARK  214  A    between atoms: _517  and  _519
REMARK  215  A    between atoms: _519  and  _520
REMARK  216  A    between atoms: _519  and  _522
REMARK  217  A    between atoms: _522  and  _523
REMARK  218  A    between atoms: _526  and  _528
REMARK  219  A    between atoms: _528  and  _529
REMARK  220  A    between atoms: _531  and  _533
REMARK  221  A    between atoms: _533  and  _534
REMARK  222  A    between atoms: _533  and  _536
REMARK  223  A    between atoms: _536  and  _537
REMARK  224  A    between atoms: _537  and  _538
REMARK  225  A    between atoms: _538  and  _539
REMARK  226  A    between atoms: _548  and  _550
REMARK  227  A    between atoms: _550  and  _551
REMARK  228  A    between atoms: _550  and  _553
REMARK  229  A    between atoms: _553  and  _554
REMARK                            x       y       z     vdW  Elec       q    Type
REMARK                         _______ _______ _______ _____ _____    ______ ____
ROOT
ATOM      1  O   HOH     1      20.271  21.490  15.451  0.00  0.00    +0.000 OA
ENDROOT
TORSDOF 0
REMARK  Name = ../refined-set-2016/3mxe/3mxe_pocket.pdb
REMARK  229 active torsions:
REMARK  status: ('A' for Active; 'I' for Inactive)
REMARK    1  A    between atoms: _1  and  _3
REMARK    2  A    between atoms: _3  and  _4
REMARK    3  A    between atoms: _3  and  _6
REMARK    4  A    between atoms: _6  and  _7
REMARK    5  A    between atoms: _7  and  _8
REMARK    6  A    between atoms: _8  and  _9
REMARK    7  A    between atoms: _18  and  _20
REMARK    8  A    between atoms: _20  and  _21
REMARK    9  A    between atoms: _20  and  _23
REMARK   10  A    between atoms: _23  and  _24
REMARK   11  A    between atoms: _27  and  _29
REMARK   12  A    between atoms: _29  and  _30
REMARK   13  A    between atoms: _29  and  _32
REMARK   14  A    between atoms: _32  and  _33
REMARK   15  A    between atoms: _36  and  _38
REMARK   16  A    between atoms: _38  and  _39
REMARK   17  A    between atoms: _38  and  _41
REMARK   18  A    between atoms: _41  and  _42
REMARK   19  A    between atoms: _45  and  _47
REMARK   20  A    between atoms: _47  and  _48
REMARK   21  A    between atoms: _47  and  _50
REMARK   22  A    between atoms: _50  and  _51
REMARK   23  A    between atoms: _54  and  _56
REMARK   24  A    between atoms: _56  and  _57
REMARK   25  A    between atoms: _59  and  _61
REMARK   26  A    between atoms: _61  and  _62
REMARK   27  A    between atoms: _65  and  _67
REMARK   28  A    between atoms: _67  and  _68
REMARK   29  A    between atoms: _67  and  _70
REMARK   30  A    between atoms: _70  and  _71
REMARK   31  A    between atoms: _74  and  _76
REMARK   32  A    between atoms: _76  and  _77
REMARK   33  A    between atoms: _76  and  _79
REMARK   34  A    between atoms: _79  and  _80
REMARK   35  A    between atoms: _83  and  _85
REMARK   36  A    between atoms: _85  and  _86
REMARK   37  A    between atoms: _85  and  _88
REMARK   38  A    between atoms: _88  and  _89
REMARK   39  A    between atoms: _92  and  _94
REMARK   40  A    between atoms: _94  and  _95
REMARK   41  A    between atoms: _94  and  _97
REMARK   42  A    between atoms: _100  and  _102
REMARK   43  A    between atoms: _102  and  _103
REMARK   44  A    between atoms: _102  and  _105
REMARK   45  A    between atoms: _105  and  _106
REMARK   46  A    between atoms: _106  and  _107
REMARK   47  A    between atoms: _107  and  _108
REMARK   48  A    between atoms: _108  and  _109
REMARK   49  A    between atoms: _113  and  _115
REMARK   50  A    between atoms: _115  and  _116
REMARK   51  A    between atoms: _115  and  _118
REMARK   52  A    between atoms: _118  and  _119
REMARK   53  A    between atoms: _119  and  _120
REMARK   54  A    between atoms: _122  and  _124
REMARK   55  A    between atoms: _124  and  _125
REMARK   56  A    between atoms: _124  and  _127
REMARK   57  A    between atoms: _127  and  _128
REMARK   58  A    between atoms: _131  and  _133
REMARK   59  A    between atoms: _133  and  _134
REMARK   60  A    between atoms: _136  and  _138
REMARK   61  A    between atoms: _138  and  _139
REMARK   62  A    between atoms: _141  and  _143
REMARK   63  A    between atoms: _143  and  _144
REMARK   64  A    between atoms: _143  and  _146
REMARK   65  A    between atoms: _146  and  _147
REMARK   66  A    between atoms: _150  and  _152
REMARK   67  A    between atoms: _152  and  _153
REMARK   68  A    between atoms: _155  and  _157
REMARK   69  A    between atoms: _157  and  _158
REMARK   70  A    between atoms: _160  and  _162
REMARK   71  A    between atoms: _162  and  _163
REMARK   72  A    between atoms: _162  and  _165
REMARK   73  A    between atoms: _165  and  _166
REMARK   74  A    between atoms: _172  and  _174
REMARK   75  A    between atoms: _174  and  _175
REMARK   76  A    between atoms: _174  and  _177
REMARK   77  A    between atoms: _177  and  _178
REMARK   78  A    between atoms: _181  and  _183
REMARK   79  A    between atoms: _183  and  _184
REMARK   80  A    between atoms: _183  and  _186
REMARK   81  A    between atoms: _189  and  _191
REMARK   82  A    between atoms: _191  and  _192
REMARK   83  A    between atoms: _191  and  _194
REMARK   84  A    between atoms: _194  and  _195
REMARK   85  A    between atoms: _198  and  _200
REMARK   86  A    between atoms: _200  and  _201
REMARK   87  A    between atoms: _200  and  _203
REMARK   88  A    between atoms: _203  and  _204
REMARK   89  A    between atoms: _208  and  _209
REMARK   90  A    between atoms: _214  and  _216
REMARK   91  A    between atoms: _216  and  _217
REMARK   92  A    between atoms: _216  and  _219
REMARK   93  A    between atoms: _222  and  _224
REMARK   94  A    between atoms: _224  and  _225
REMARK   95  A    between atoms: _224  and  _227
REMARK   96  A    between atoms: _227  and  _228
REMARK   97  A    between atoms: _233  and  _235
REMARK   98  A    between atoms: _235  and  _236
REMARK   99  A    between atoms: _235  and  _238
REMARK  100  A    between atoms: _238  and  _239
REMARK  101  A    between atoms: _242  and  _244
REMARK  102  A    between atoms: _244  and  _245
REMARK  103  A    between atoms: _244  and  _247
REMARK  104  A    between atoms: _247  and  _248
REMARK  105  A    between atoms: _251  and  _253
REMARK  106  A    between atoms: _253  and  _254
REMARK  107  A    between atoms: _256  and  _258
REMARK  108  A    between atoms: _258  and  _259
REMARK  109  A    between atoms: _258  and  _261
REMARK  110  A    between atoms: _261  and  _262
REMARK  111  A    between atoms: _262  and  _263
REMARK  112  A    between atoms: _263  and  _264
REMARK  113  A    between atoms: _273  and  _275
REMARK  114  A    between atoms: _275  and  _276
REMARK  115  A    between atoms: _275  and  _278
REMARK  116  A    between atoms: _278  and  _279
REMARK  117  A    between atoms: _284  and  _286
REMARK  118  A    between atoms: _286  and  _287
REMARK  119  A    between atoms: _286  and  _289
REMARK  120  A    between atoms: _289  and  _290
REMARK  121  A    between atoms: _290  and  _291
REMARK  122  A    between atoms: _291  and  _292
REMARK  123  A    between atoms: _301  and  _303
REMARK  124  A    between atoms: _303  and  _304
REMARK  125  A    between atoms: _303  and  _306
REMARK  126  A    between atoms: _306  and  _307
REMARK  127  A    between atoms: _310  and  _312
REMARK  128  A    between atoms: _312  and  _313
REMARK  129  A    between atoms: _312  and  _315
REMARK  130  A    between atoms: _315  and  _316
REMARK  131  A    between atoms: _319  and  _321
REMARK  132  A    between atoms: _321  and  _322
REMARK  133  A    between atoms: _321  and  _324
REMARK  134  A    between atoms: _324  and  _325
REMARK  135  A    between atoms: _328  and  _330
REMARK  136  A    between atoms: _330  and  _331
REMARK  137  A    between atoms: _330  and  _333
REMARK  138  A    between atoms: _333  and  _334
REMARK  139  A    between atoms: _337  and  _339
REMARK  140  A    between atoms: _339  and  _340
REMARK  141  A    between atoms: _342  and  _344
REMARK  142  A    between atoms: _344  and  _345
REMARK  143  A    between atoms: _348  and  _350
REMARK  144  A    between atoms: _350  and  _351
REMARK  145  A    between atoms: _350  and  _353
REMARK  146  A    between atoms: _353  and  _354
REMARK  147  A    between atoms: _357  and  _359
REMARK  148  A    between atoms: _359  and  _360
REMARK  149  A    between atoms: _359  and  _362
REMARK  150  A    between atoms: _362  and  _363
REMARK  151  A    between atoms: _366  and  _368
REMARK  152  A    between atoms: _368  and  _369
REMARK  153  A    between atoms: _368  and  _371
REMARK  154  A    between atoms: _371  and  _372
REMARK  155  A    between atoms: _375  and  _377
REMARK  156  A    between atoms: _377  and  _378
REMARK  157  A    between atoms: _377  and  _380
REMARK  158  A    between atoms: _383  and  _385
REMARK  159  A    between atoms: _385  and  _386
REMARK  160  A    between atoms: _385  and  _388
REMARK  161  A    between atoms: _388  and  _389
REMARK  162  A    between atoms: _389  and  _390
REMARK  163  A    between atoms: _390  and  _391
REMARK  164  A    between atoms: _391  and  _392
REMARK  165  A    between atoms: _396  and  _398
REMARK  166  A    between atoms: _398  and  _399
REMARK  167  A    between atoms: _398  and  _401
REMARK  168  A    between atoms: _401  and  _402
REMARK  169  A    between atoms: _402  and  _403
REMARK  170  A    between atoms: _405  and  _407
REMARK  171  A    between atoms: _407  and  _408
REMARK  172  A    between atoms: _407  and  _410
REMARK  173  A    between atoms: _410  and  _411
REMARK  174  A    between atoms: _414  and  _416
REMARK  175  A    between atoms: _416  and  _417
REMARK  176  A    between atoms: _419  and  _421
REMARK  177  A    between atoms: _421  and  _422
REMARK  178  A    between atoms: _424  and  _426
REMARK  179  A    between atoms: _426  and  _427
REMARK  180  A    between atoms: _426  and  _429
REMARK  181  A    between atoms: _429  and  _430
REMARK  182  A    between atoms: _433  and  _435
REMARK  183  A    between atoms: _435  and  _436
REMARK  184  A    between atoms: _438  and  _440
REMARK  185  A    between atoms: _440  and  _441
REMARK  186  A    between atoms: _443  and  _445
REMARK  187  A    between atoms: _445  and  _446
REMARK  188  A    between atoms: _445  and  _448
REMARK  189  A    between atoms: _448  and  _449
REMARK  190  A    between atoms: _455  and  _457
REMARK  191  A    between atoms: _457  and  _458
REMARK  192  A    between atoms: _457  and  _460
REMARK  193  A    between atoms: _460  and  _461
REMARK  194  A    between atoms: _464  and  _466
REMARK  195  A    between atoms: _466  and  _467
REMARK  196  A    between atoms: _466  and  _469
REMARK  197  A    between atoms: _469  and  _470
REMARK  198  A    between atoms: _473  and  _475
REMARK  199  A    between atoms: _475  and  _476
REMARK  200  A    between atoms: _475  and  _478
REMARK  201  A    between atoms: _478  and  _479
REMARK  202  A    between atoms: _483  and  _484
REMARK  203  A    between atoms: _489  and  _491
REMARK  204  A    between atoms: _491  and  _492
REMARK  205  A    between atoms: _491  and  _494
REMARK  206  A    between atoms: _497  and  _499
REMARK  207  A    between atoms: _499  and  _500
REMARK  208  A    between atoms: _499  and  _502
REMARK  209  A    between atoms: _502  and  _503
REMARK  210  A    between atoms: _508  and  _510
REMARK  211  A    between atoms: _510  and  _511
REMARK  212  A    between atoms: _510  and  _513
REMARK  213  A    between atoms: _513  and  _514
REMARK  214  A    between atoms: _517  and  _519
REMARK  215  A    between atoms: _519  and  _520
REMARK  216  A    between atoms: _519  and  _522
REMARK  217  A    between atoms: _522  and  _523
REMARK  218  A    between atoms: _526  and  _528
REMARK  219  A    between atoms: _528  and  _529
REMARK  220  A    between atoms: _531  and  _533
REMARK  221  A    between atoms: _533  and  _534
REMARK  222  A    between atoms: _533  and  _536
REMARK  223  A    between atoms: _536  and  _537
REMARK  224  A    between atoms: _537  and  _538
REMARK  225  A    between atoms: _538  and  _539
REMARK  226  A    between atoms: _548  and  _550
REMARK  227  A    between atoms: _550  and  _551
REMARK  228  A    between atoms: _550  and  _553
REMARK  229  A    between atoms: _553  and  _554
REMARK                            x       y       z     vdW  Elec       q    Type
REMARK                         _______ _______ _______ _____ _____    ______ ____
ROOT
ATOM      1  O   HOH     1      19.706  22.858  13.156  0.00  0.00    +0.000 OA
ENDROOT
TORSDOF 0
REMARK  Name = ../refined-set-2016/3mxe/3mxe_pocket.pdb
REMARK  229 active torsions:
REMARK  status: ('A' for Active; 'I' for Inactive)
REMARK    1  A    between atoms: _1  and  _3
REMARK    2  A    between atoms: _3  and  _4
REMARK    3  A    between atoms: _3  and  _6
REMARK    4  A    between atoms: _6  and  _7
REMARK    5  A    between atoms: _7  and  _8
REMARK    6  A    between atoms: _8  and  _9
REMARK    7  A    between atoms: _18  and  _20
REMARK    8  A    between atoms: _20  and  _21
REMARK    9  A    between atoms: _20  and  _23
REMARK   10  A    between atoms: _23  and  _24
REMARK   11  A    between atoms: _27  and  _29
REMARK   12  A    between atoms: _29  and  _30
REMARK   13  A    between atoms: _29  and  _32
REMARK   14  A    between atoms: _32  and  _33
REMARK   15  A    between atoms: _36  and  _38
REMARK   16  A    between atoms: _38  and  _39
REMARK   17  A    between atoms: _38  and  _41
REMARK   18  A    between atoms: _41  and  _42
REMARK   19  A    between atoms: _45  and  _47
REMARK   20  A    between atoms: _47  and  _48
REMARK   21  A    between atoms: _47  and  _50
REMARK   22  A    between atoms: _50  and  _51
REMARK   23  A    between atoms: _54  and  _56
REMARK   24  A    between atoms: _56  and  _57
REMARK   25  A    between atoms: _59  and  _61
REMARK   26  A    between atoms: _61  and  _62
REMARK   27  A    between atoms: _65  and  _67
REMARK   28  A    between atoms: _67  and  _68
REMARK   29  A    between atoms: _67  and  _70
REMARK   30  A    between atoms: _70  and  _71
REMARK   31  A    between atoms: _74  and  _76
REMARK   32  A    between atoms: _76  and  _77
REMARK   33  A    between atoms: _76  and  _79
REMARK   34  A    between atoms: _79  and  _80
REMARK   35  A    between atoms: _83  and  _85
REMARK   36  A    between atoms: _85  and  _86
REMARK   37  A    between atoms: _85  and  _88
REMARK   38  A    between atoms: _88  and  _89
REMARK   39  A    between atoms: _92  and  _94
REMARK   40  A    between atoms: _94  and  _95
REMARK   41  A    between atoms: _94  and  _97
REMARK   42  A    between atoms: _100  and  _102
REMARK   43  A    between atoms: _102  and  _103
REMARK   44  A    between atoms: _102  and  _105
REMARK   45  A    between atoms: _105  and  _106
REMARK   46  A    between atoms: _106  and  _107
REMARK   47  A    between atoms: _107  and  _108
REMARK   48  A    between atoms: _108  and  _109
REMARK   49  A    between atoms: _113  and  _115
REMARK   50  A    between atoms: _115  and  _116
REMARK   51  A    between atoms: _115  and  _118
REMARK   52  A    between atoms: _118  and  _119
REMARK   53  A    between atoms: _119  and  _120
REMARK   54  A    between atoms: _122  and  _124
REMARK   55  A    between atoms: _124  and  _125
REMARK   56  A    between atoms: _124  and  _127
REMARK   57  A    between atoms: _127  and  _128
REMARK   58  A    between atoms: _131  and  _133
REMARK   59  A    between atoms: _133  and  _134
REMARK   60  A    between atoms: _136  and  _138
REMARK   61  A    between atoms: _138  and  _139
REMARK   62  A    between atoms: _141  and  _143
REMARK   63  A    between atoms: _143  and  _144
REMARK   64  A    between atoms: _143  and  _146
REMARK   65  A    between atoms: _146  and  _147
REMARK   66  A    between atoms: _150  and  _152
REMARK   67  A    between atoms: _152  and  _153
REMARK   68  A    between atoms: _155  and  _157
REMARK   69  A    between atoms: _157  and  _158
REMARK   70  A    between atoms: _160  and  _162
REMARK   71  A    between atoms: _162  and  _163
REMARK   72  A    between atoms: _162  and  _165
REMARK   73  A    between atoms: _165  and  _166
REMARK   74  A    between atoms: _172  and  _174
REMARK   75  A    between atoms: _174  and  _175
REMARK   76  A    between atoms: _174  and  _177
REMARK   77  A    between atoms: _177  and  _178
REMARK   78  A    between atoms: _181  and  _183
REMARK   79  A    between atoms: _183  and  _184
REMARK   80  A    between atoms: _183  and  _186
REMARK   81  A    between atoms: _189  and  _191
REMARK   82  A    between atoms: _191  and  _192
REMARK   83  A    between atoms: _191  and  _194
REMARK   84  A    between atoms: _194  and  _195
REMARK   85  A    between atoms: _198  and  _200
REMARK   86  A    between atoms: _200  and  _201
REMARK   87  A    between atoms: _200  and  _203
REMARK   88  A    between atoms: _203  and  _204
REMARK   89  A    between atoms: _208  and  _209
REMARK   90  A    between atoms: _214  and  _216
REMARK   91  A    between atoms: _216  and  _217
REMARK   92  A    between atoms: _216  and  _219
REMARK   93  A    between atoms: _222  and  _224
REMARK   94  A    between atoms: _224  and  _225
REMARK   95  A    between atoms: _224  and  _227
REMARK   96  A    between atoms: _227  and  _228
REMARK   97  A    between atoms: _233  and  _235
REMARK   98  A    between atoms: _235  and  _236
REMARK   99  A    between atoms: _235  and  _238
REMARK  100  A    between atoms: _238  and  _239
REMARK  101  A    between atoms: _242  and  _244
REMARK  102  A    between atoms: _244  and  _245
REMARK  103  A    between atoms: _244  and  _247
REMARK  104  A    between atoms: _247  and  _248
REMARK  105  A    between atoms: _251  and  _253
REMARK  106  A    between atoms: _253  and  _254
REMARK  107  A    between atoms: _256  and  _258
REMARK  108  A    between atoms: _258  and  _259
REMARK  109  A    between atoms: _258  and  _261
REMARK  110  A    between atoms: _261  and  _262
REMARK  111  A    between atoms: _262  and  _263
REMARK  112  A    between atoms: _263  and  _264
REMARK  113  A    between atoms: _273  and  _275
REMARK  114  A    between atoms: _275  and  _276
REMARK  115  A    between atoms: _275  and  _278
REMARK  116  A    between atoms: _278  and  _279
REMARK  117  A    between atoms: _284  and  _286
REMARK  118  A    between atoms: _286  and  _287
REMARK  119  A    between atoms: _286  and  _289
REMARK  120  A    between atoms: _289  and  _290
REMARK  121  A    between atoms: _290  and  _291
REMARK  122  A    between atoms: _291  and  _292
REMARK  123  A    between atoms: _301  and  _303
REMARK  124  A    between atoms: _303  and  _304
REMARK  125  A    between atoms: _303  and  _306
REMARK  126  A    between atoms: _306  and  _307
REMARK  127  A    between atoms: _310  and  _312
REMARK  128  A    between atoms: _312  and  _313
REMARK  129  A    between atoms: _312  and  _315
REMARK  130  A    between atoms: _315  and  _316
REMARK  131  A    between atoms: _319  and  _321
REMARK  132  A    between atoms: _321  and  _322
REMARK  133  A    between atoms: _321  and  _324
REMARK  134  A    between atoms: _324  and  _325
REMARK  135  A    between atoms: _328  and  _330
REMARK  136  A    between atoms: _330  and  _331
REMARK  137  A    between atoms: _330  and  _333
REMARK  138  A    between atoms: _333  and  _334
REMARK  139  A    between atoms: _337  and  _339
REMARK  140  A    between atoms: _339  and  _340
REMARK  141  A    between atoms: _342  and  _344
REMARK  142  A    between atoms: _344  and  _345
REMARK  143  A    between atoms: _348  and  _350
REMARK  144  A    between atoms: _350  and  _351
REMARK  145  A    between atoms: _350  and  _353
REMARK  146  A    between atoms: _353  and  _354
REMARK  147  A    between atoms: _357  and  _359
REMARK  148  A    between atoms: _359  and  _360
REMARK  149  A    between atoms: _359  and  _362
REMARK  150  A    between atoms: _362  and  _363
REMARK  151  A    between atoms: _366  and  _368
REMARK  152  A    between atoms: _368  and  _369
REMARK  153  A    between atoms: _368  and  _371
REMARK  154  A    between atoms: _371  and  _372
REMARK  155  A    between atoms: _375  and  _377
REMARK  156  A    between atoms: _377  and  _378
REMARK  157  A    between atoms: _377  and  _380
REMARK  158  A    between atoms: _383  and  _385
REMARK  159  A    between atoms: _385  and  _386
REMARK  160  A    between atoms: _385  and  _388
REMARK  161  A    between atoms: _388  and  _389
REMARK  162  A    between atoms: _389  and  _390
REMARK  163  A    between atoms: _390  and  _391
REMARK  164  A    between atoms: _391  and  _392
REMARK  165  A    between atoms: _396  and  _398
REMARK  166  A    between atoms: _398  and  _399
REMARK  167  A    between atoms: _398  and  _401
REMARK  168  A    between atoms: _401  and  _402
REMARK  169  A    between atoms: _402  and  _403
REMARK  170  A    between atoms: _405  and  _407
REMARK  171  A    between atoms: _407  and  _408
REMARK  172  A    between atoms: _407  and  _410
REMARK  173  A    between atoms: _410  and  _411
REMARK  174  A    between atoms: _414  and  _416
REMARK  175  A    between atoms: _416  and  _417
REMARK  176  A    between atoms: _419  and  _421
REMARK  177  A    between atoms: _421  and  _422
REMARK  178  A    between atoms: _424  and  _426
REMARK  179  A    between atoms: _426  and  _427
REMARK  180  A    between atoms: _426  and  _429
REMARK  181  A    between atoms: _429  and  _430
REMARK  182  A    between atoms: _433  and  _435
REMARK  183  A    between atoms: _435  and  _436
REMARK  184  A    between atoms: _438  and  _440
REMARK  185  A    between atoms: _440  and  _441
REMARK  186  A    between atoms: _443  and  _445
REMARK  187  A    between atoms: _445  and  _446
REMARK  188  A    between atoms: _445  and  _448
REMARK  189  A    between atoms: _448  and  _449
REMARK  190  A    between atoms: _455  and  _457
REMARK  191  A    between atoms: _457  and  _458
REMARK  192  A    between atoms: _457  and  _460
REMARK  193  A    between atoms: _460  and  _461
REMARK  194  A    between atoms: _464  and  _466
REMARK  195  A    between atoms: _466  and  _467
REMARK  196  A    between atoms: _466  and  _469
REMARK  197  A    between atoms: _469  and  _470
REMARK  198  A    between atoms: _473  and  _475
REMARK  199  A    between atoms: _475  and  _476
REMARK  200  A    between atoms: _475  and  _478
REMARK  201  A    between atoms: _478  and  _479
REMARK  202  A    between atoms: _483  and  _484
REMARK  203  A    between atoms: _489  and  _491
REMARK  204  A    between atoms: _491  and  _492
REMARK  205  A    between atoms: _491  and  _494
REMARK  206  A    between atoms: _497  and  _499
REMARK  207  A    between atoms: _499  and  _500
REMARK  208  A    between atoms: _499  and  _502
REMARK  209  A    between atoms: _502  and  _503
REMARK  210  A    between atoms: _508  and  _510
REMARK  211  A    between atoms: _510  and  _511
REMARK  212  A    between atoms: _510  and  _513
REMARK  213  A    between atoms: _513  and  _514
REMARK  214  A    between atoms: _517  and  _519
REMARK  215  A    between atoms: _519  and  _520
REMARK  216  A    between atoms: _519  and  _522
REMARK  217  A    between atoms: _522  and  _523
REMARK  218  A    between atoms: _526  and  _528
REMARK  219  A    between atoms: _528  and  _529
REMARK  220  A    between atoms: _531  and  _533
REMARK  221  A    between atoms: _533  and  _534
REMARK  222  A    between atoms: _533  and  _536
REMARK  223  A    between atoms: _536  and  _537
REMARK  224  A    between atoms: _537  and  _538
REMARK  225  A    between atoms: _538  and  _539
REMARK  226  A    between atoms: _548  and  _550
REMARK  227  A    between atoms: _550  and  _551
REMARK  228  A    between atoms: _550  and  _553
REMARK  229  A    between atoms: _553  and  _554
REMARK                            x       y       z     vdW  Elec       q    Type
REMARK                         _______ _______ _______ _____ _____    ______ ____
ROOT
ATOM      1  O   HOH     1      20.017  32.100  11.448  0.00  0.00    +0.000 OA
ENDROOT
TORSDOF 0
REMARK  Name = ../refined-set-2016/3mxe/3mxe_pocket.pdb
REMARK  229 active torsions:
REMARK  status: ('A' for Active; 'I' for Inactive)
REMARK    1  A    between atoms: _1  and  _3
REMARK    2  A    between atoms: _3  and  _4
REMARK    3  A    between atoms: _3  and  _6
REMARK    4  A    between atoms: _6  and  _7
REMARK    5  A    between atoms: _7  and  _8
REMARK    6  A    between atoms: _8  and  _9
REMARK    7  A    between atoms: _18  and  _20
REMARK    8  A    between atoms: _20  and  _21
REMARK    9  A    between atoms: _20  and  _23
REMARK   10  A    between atoms: _23  and  _24
REMARK   11  A    between atoms: _27  and  _29
REMARK   12  A    between atoms: _29  and  _30
REMARK   13  A    between atoms: _29  and  _32
REMARK   14  A    between atoms: _32  and  _33
REMARK   15  A    between atoms: _36  and  _38
REMARK   16  A    between atoms: _38  and  _39
REMARK   17  A    between atoms: _38  and  _41
REMARK   18  A    between atoms: _41  and  _42
REMARK   19  A    between atoms: _45  and  _47
REMARK   20  A    between atoms: _47  and  _48
REMARK   21  A    between atoms: _47  and  _50
REMARK   22  A    between atoms: _50  and  _51
REMARK   23  A    between atoms: _54  and  _56
REMARK   24  A    between atoms: _56  and  _57
REMARK   25  A    between atoms: _59  and  _61
REMARK   26  A    between atoms: _61  and  _62
REMARK   27  A    between atoms: _65  and  _67
REMARK   28  A    between atoms: _67  and  _68
REMARK   29  A    between atoms: _67  and  _70
REMARK   30  A    between atoms: _70  and  _71
REMARK   31  A    between atoms: _74  and  _76
REMARK   32  A    between atoms: _76  and  _77
REMARK   33  A    between atoms: _76  and  _79
REMARK   34  A    between atoms: _79  and  _80
REMARK   35  A    between atoms: _83  and  _85
REMARK   36  A    between atoms: _85  and  _86
REMARK   37  A    between atoms: _85  and  _88
REMARK   38  A    between atoms: _88  and  _89
REMARK   39  A    between atoms: _92  and  _94
REMARK   40  A    between atoms: _94  and  _95
REMARK   41  A    between atoms: _94  and  _97
REMARK   42  A    between atoms: _100  and  _102
REMARK   43  A    between atoms: _102  and  _103
REMARK   44  A    between atoms: _102  and  _105
REMARK   45  A    between atoms: _105  and  _106
REMARK   46  A    between atoms: _106  and  _107
REMARK   47  A    between atoms: _107  and  _108
REMARK   48  A    between atoms: _108  and  _109
REMARK   49  A    between atoms: _113  and  _115
REMARK   50  A    between atoms: _115  and  _116
REMARK   51  A    between atoms: _115  and  _118
REMARK   52  A    between atoms: _118  and  _119
REMARK   53  A    between atoms: _119  and  _120
REMARK   54  A    between atoms: _122  and  _124
REMARK   55  A    between atoms: _124  and  _125
REMARK   56  A    between atoms: _124  and  _127
REMARK   57  A    between atoms: _127  and  _128
REMARK   58  A    between atoms: _131  and  _133
REMARK   59  A    between atoms: _133  and  _134
REMARK   60  A    between atoms: _136  and  _138
REMARK   61  A    between atoms: _138  and  _139
REMARK   62  A    between atoms: _141  and  _143
REMARK   63  A    between atoms: _143  and  _144
REMARK   64  A    between atoms: _143  and  _146
REMARK   65  A    between atoms: _146  and  _147
REMARK   66  A    between atoms: _150  and  _152
REMARK   67  A    between atoms: _152  and  _153
REMARK   68  A    between atoms: _155  and  _157
REMARK   69  A    between atoms: _157  and  _158
REMARK   70  A    between atoms: _160  and  _162
REMARK   71  A    between atoms: _162  and  _163
REMARK   72  A    between atoms: _162  and  _165
REMARK   73  A    between atoms: _165  and  _166
REMARK   74  A    between atoms: _172  and  _174
REMARK   75  A    between atoms: _174  and  _175
REMARK   76  A    between atoms: _174  and  _177
REMARK   77  A    between atoms: _177  and  _178
REMARK   78  A    between atoms: _181  and  _183
REMARK   79  A    between atoms: _183  and  _184
REMARK   80  A    between atoms: _183  and  _186
REMARK   81  A    between atoms: _189  and  _191
REMARK   82  A    between atoms: _191  and  _192
REMARK   83  A    between atoms: _191  and  _194
REMARK   84  A    between atoms: _194  and  _195
REMARK   85  A    between atoms: _198  and  _200
REMARK   86  A    between atoms: _200  and  _201
REMARK   87  A    between atoms: _200  and  _203
REMARK   88  A    between atoms: _203  and  _204
REMARK   89  A    between atoms: _208  and  _209
REMARK   90  A    between atoms: _214  and  _216
REMARK   91  A    between atoms: _216  and  _217
REMARK   92  A    between atoms: _216  and  _219
REMARK   93  A    between atoms: _222  and  _224
REMARK   94  A    between atoms: _224  and  _225
REMARK   95  A    between atoms: _224  and  _227
REMARK   96  A    between atoms: _227  and  _228
REMARK   97  A    between atoms: _233  and  _235
REMARK   98  A    between atoms: _235  and  _236
REMARK   99  A    between atoms: _235  and  _238
REMARK  100  A    between atoms: _238  and  _239
REMARK  101  A    between atoms: _242  and  _244
REMARK  102  A    between atoms: _244  and  _245
REMARK  103  A    between atoms: _244  and  _247
REMARK  104  A    between atoms: _247  and  _248
REMARK  105  A    between atoms: _251  and  _253
REMARK  106  A    between atoms: _253  and  _254
REMARK  107  A    between atoms: _256  and  _258
REMARK  108  A    between atoms: _258  and  _259
REMARK  109  A    between atoms: _258  and  _261
REMARK  110  A    between atoms: _261  and  _262
REMARK  111  A    between atoms: _262  and  _263
REMARK  112  A    between atoms: _263  and  _264
REMARK  113  A    between atoms: _273  and  _275
REMARK  114  A    between atoms: _275  and  _276
REMARK  115  A    between atoms: _275  and  _278
REMARK  116  A    between atoms: _278  and  _279
REMARK  117  A    between atoms: _284  and  _286
REMARK  118  A    between atoms: _286  and  _287
REMARK  119  A    between atoms: _286  and  _289
REMARK  120  A    between atoms: _289  and  _290
REMARK  121  A    between atoms: _290  and  _291
REMARK  122  A    between atoms: _291  and  _292
REMARK  123  A    between atoms: _301  and  _303
REMARK  124  A    between atoms: _303  and  _304
REMARK  125  A    between atoms: _303  and  _306
REMARK  126  A    between atoms: _306  and  _307
REMARK  127  A    between atoms: _310  and  _312
REMARK  128  A    between atoms: _312  and  _313
REMARK  129  A    between atoms: _312  and  _315
REMARK  130  A    between atoms: _315  and  _316
REMARK  131  A    between atoms: _319  and  _321
REMARK  132  A    between atoms: _321  and  _322
REMARK  133  A    between atoms: _321  and  _324
REMARK  134  A    between atoms: _324  and  _325
REMARK  135  A    between atoms: _328  and  _330
REMARK  136  A    between atoms: _330  and  _331
REMARK  137  A    between atoms: _330  and  _333
REMARK  138  A    between atoms: _333  and  _334
REMARK  139  A    between atoms: _337  and  _339
REMARK  140  A    between atoms: _339  and  _340
REMARK  141  A    between atoms: _342  and  _344
REMARK  142  A    between atoms: _344  and  _345
REMARK  143  A    between atoms: _348  and  _350
REMARK  144  A    between atoms: _350  and  _351
REMARK  145  A    between atoms: _350  and  _353
REMARK  146  A    between atoms: _353  and  _354
REMARK  147  A    between atoms: _357  and  _359
REMARK  148  A    between atoms: _359  and  _360
REMARK  149  A    between atoms: _359  and  _362
REMARK  150  A    between atoms: _362  and  _363
REMARK  151  A    between atoms: _366  and  _368
REMARK  152  A    between atoms: _368  and  _369
REMARK  153  A    between atoms: _368  and  _371
REMARK  154  A    between atoms: _371  and  _372
REMARK  155  A    between atoms: _375  and  _377
REMARK  156  A    between atoms: _377  and  _378
REMARK  157  A    between atoms: _377  and  _380
REMARK  158  A    between atoms: _383  and  _385
REMARK  159  A    between atoms: _385  and  _386
REMARK  160  A    between atoms: _385  and  _388
REMARK  161  A    between atoms: _388  and  _389
REMARK  162  A    between atoms: _389  and  _390
REMARK  163  A    between atoms: _390  and  _391
REMARK  164  A    between atoms: _391  and  _392
REMARK  165  A    between atoms: _396  and  _398
REMARK  166  A    between atoms: _398  and  _399
REMARK  167  A    between atoms: _398  and  _401
REMARK  168  A    between atoms: _401  and  _402
REMARK  169  A    between atoms: _402  and  _403
REMARK  170  A    between atoms: _405  and  _407
REMARK  171  A    between atoms: _407  and  _408
REMARK  172  A    between atoms: _407  and  _410
REMARK  173  A    between atoms: _410  and  _411
REMARK  174  A    between atoms: _414  and  _416
REMARK  175  A    between atoms: _416  and  _417
REMARK  176  A    between atoms: _419  and  _421
REMARK  177  A    between atoms: _421  and  _422
REMARK  178  A    between atoms: _424  and  _426
REMARK  179  A    between atoms: _426  and  _427
REMARK  180  A    between atoms: _426  and  _429
REMARK  181  A    between atoms: _429  and  _430
REMARK  182  A    between atoms: _433  and  _435
REMARK  183  A    between atoms: _435  and  _436
REMARK  184  A    between atoms: _438  and  _440
REMARK  185  A    between atoms: _440  and  _441
REMARK  186  A    between atoms: _443  and  _445
REMARK  187  A    between atoms: _445  and  _446
REMARK  188  A    between atoms: _445  and  _448
REMARK  189  A    between atoms: _448  and  _449
REMARK  190  A    between atoms: _455  and  _457
REMARK  191  A    between atoms: _457  and  _458
REMARK  192  A    between atoms: _457  and  _460
REMARK  193  A    between atoms: _460  and  _461
REMARK  194  A    between atoms: _464  and  _466
REMARK  195  A    between atoms: _466  and  _467
REMARK  196  A    between atoms: _466  and  _469
REMARK  197  A    between atoms: _469  and  _470
REMARK  198  A    between atoms: _473  and  _475
REMARK  199  A    between atoms: _475  and  _476
REMARK  200  A    between atoms: _475  and  _478
REMARK  201  A    between atoms: _478  and  _479
REMARK  202  A    between atoms: _483  and  _484
REMARK  203  A    between atoms: _489  and  _491
REMARK  204  A    between atoms: _491  and  _492
REMARK  205  A    between atoms: _491  and  _494
REMARK  206  A    between atoms: _497  and  _499
REMARK  207  A    between atoms: _499  and  _500
REMARK  208  A    between atoms: _499  and  _502
REMARK  209  A    between atoms: _502  and  _503
REMARK  210  A    between atoms: _508  and  _510
REMARK  211  A    between atoms: _510  and  _511
REMARK  212  A    between atoms: _510  and  _513
REMARK  213  A    between atoms: _513  and  _514
REMARK  214  A    between atoms: _517  and  _519
REMARK  215  A    between atoms: _519  and  _520
REMARK  216  A    between atoms: _519  and  _522
REMARK  217  A    between atoms: _522  and  _523
REMARK  218  A    between atoms: _526  and  _528
REMARK  219  A    between atoms: _528  and  _529
REMARK  220  A    between atoms: _531  and  _533
REMARK  221  A    between atoms: _533  and  _534
REMARK  222  A    between atoms: _533  and  _536
REMARK  223  A    between atoms: _536  and  _537
REMARK  224  A    between atoms: _537  and  _538
REMARK  225  A    between atoms: _538  and  _539
REMARK  226  A    between atoms: _548  and  _550
REMARK  227  A    between atoms: _550  and  _551
REMARK  228  A    between atoms: _550  and  _553
REMARK  229  A    between atoms: _553  and  _554
REMARK                            x       y       z     vdW  Elec       q    Type
REMARK                         _______ _______ _______ _____ _____    ______ ____
ROOT
ATOM      1  O   HOH     1      23.387  25.624   4.128  0.00  0.00    +0.000 OA
ENDROOT
TORSDOF 0
REMARK  Name = ../refined-set-2016/3mxe/3mxe_pocket.pdb
REMARK  229 active torsions:
REMARK  status: ('A' for Active; 'I' for Inactive)
REMARK    1  A    between atoms: _1  and  _3
REMARK    2  A    between atoms: _3  and  _4
REMARK    3  A    between atoms: _3  and  _6
REMARK    4  A    between atoms: _6  and  _7
REMARK    5  A    between atoms: _7  and  _8
REMARK    6  A    between atoms: _8  and  _9
REMARK    7  A    between atoms: _18  and  _20
REMARK    8  A    between atoms: _20  and  _21
REMARK    9  A    between atoms: _20  and  _23
REMARK   10  A    between atoms: _23  and  _24
REMARK   11  A    between atoms: _27  and  _29
REMARK   12  A    between atoms: _29  and  _30
REMARK   13  A    between atoms: _29  and  _32
REMARK   14  A    between atoms: _32  and  _33
REMARK   15  A    between atoms: _36  and  _38
REMARK   16  A    between atoms: _38  and  _39
REMARK   17  A    between atoms: _38  and  _41
REMARK   18  A    between atoms: _41  and  _42
REMARK   19  A    between atoms: _45  and  _47
REMARK   20  A    between atoms: _47  and  _48
REMARK   21  A    between atoms: _47  and  _50
REMARK   22  A    between atoms: _50  and  _51
REMARK   23  A    between atoms: _54  and  _56
REMARK   24  A    between atoms: _56  and  _57
REMARK   25  A    between atoms: _59  and  _61
REMARK   26  A    between atoms: _61  and  _62
REMARK   27  A    between atoms: _65  and  _67
REMARK   28  A    between atoms: _67  and  _68
REMARK   29  A    between atoms: _67  and  _70
REMARK   30  A    between atoms: _70  and  _71
REMARK   31  A    between atoms: _74  and  _76
REMARK   32  A    between atoms: _76  and  _77
REMARK   33  A    between atoms: _76  and  _79
REMARK   34  A    between atoms: _79  and  _80
REMARK   35  A    between atoms: _83  and  _85
REMARK   36  A    between atoms: _85  and  _86
REMARK   37  A    between atoms: _85  and  _88
REMARK   38  A    between atoms: _88  and  _89
REMARK   39  A    between atoms: _92  and  _94
REMARK   40  A    between atoms: _94  and  _95
REMARK   41  A    between atoms: _94  and  _97
REMARK   42  A    between atoms: _100  and  _102
REMARK   43  A    between atoms: _102  and  _103
REMARK   44  A    between atoms: _102  and  _105
REMARK   45  A    between atoms: _105  and  _106
REMARK   46  A    between atoms: _106  and  _107
REMARK   47  A    between atoms: _107  and  _108
REMARK   48  A    between atoms: _108  and  _109
REMARK   49  A    between atoms: _113  and  _115
REMARK   50  A    between atoms: _115  and  _116
REMARK   51  A    between atoms: _115  and  _118
REMARK   52  A    between atoms: _118  and  _119
REMARK   53  A    between atoms: _119  and  _120
REMARK   54  A    between atoms: _122  and  _124
REMARK   55  A    between atoms: _124  and  _125
REMARK   56  A    between atoms: _124  and  _127
REMARK   57  A    between atoms: _127  and  _128
REMARK   58  A    between atoms: _131  and  _133
REMARK   59  A    between atoms: _133  and  _134
REMARK   60  A    between atoms: _136  and  _138
REMARK   61  A    between atoms: _138  and  _139
REMARK   62  A    between atoms: _141  and  _143
REMARK   63  A    between atoms: _143  and  _144
REMARK   64  A    between atoms: _143  and  _146
REMARK   65  A    between atoms: _146  and  _147
REMARK   66  A    between atoms: _150  and  _152
REMARK   67  A    between atoms: _152  and  _153
REMARK   68  A    between atoms: _155  and  _157
REMARK   69  A    between atoms: _157  and  _158
REMARK   70  A    between atoms: _160  and  _162
REMARK   71  A    between atoms: _162  and  _163
REMARK   72  A    between atoms: _162  and  _165
REMARK   73  A    between atoms: _165  and  _166
REMARK   74  A    between atoms: _172  and  _174
REMARK   75  A    between atoms: _174  and  _175
REMARK   76  A    between atoms: _174  and  _177
REMARK   77  A    between atoms: _177  and  _178
REMARK   78  A    between atoms: _181  and  _183
REMARK   79  A    between atoms: _183  and  _184
REMARK   80  A    between atoms: _183  and  _186
REMARK   81  A    between atoms: _189  and  _191
REMARK   82  A    between atoms: _191  and  _192
REMARK   83  A    between atoms: _191  and  _194
REMARK   84  A    between atoms: _194  and  _195
REMARK   85  A    between atoms: _198  and  _200
REMARK   86  A    between atoms: _200  and  _201
REMARK   87  A    between atoms: _200  and  _203
REMARK   88  A    between atoms: _203  and  _204
REMARK   89  A    between atoms: _208  and  _209
REMARK   90  A    between atoms: _214  and  _216
REMARK   91  A    between atoms: _216  and  _217
REMARK   92  A    between atoms: _216  and  _219
REMARK   93  A    between atoms: _222  and  _224
REMARK   94  A    between atoms: _224  and  _225
REMARK   95  A    between atoms: _224  and  _227
REMARK   96  A    between atoms: _227  and  _228
REMARK   97  A    between atoms: _233  and  _235
REMARK   98  A    between atoms: _235  and  _236
REMARK   99  A    between atoms: _235  and  _238
REMARK  100  A    between atoms: _238  and  _239
REMARK  101  A    between atoms: _242  and  _244
REMARK  102  A    between atoms: _244  and  _245
REMARK  103  A    between atoms: _244  and  _247
REMARK  104  A    between atoms: _247  and  _248
REMARK  105  A    between atoms: _251  and  _253
REMARK  106  A    between atoms: _253  and  _254
REMARK  107  A    between atoms: _256  and  _258
REMARK  108  A    between atoms: _258  and  _259
REMARK  109  A    between atoms: _258  and  _261
REMARK  110  A    between atoms: _261  and  _262
REMARK  111  A    between atoms: _262  and  _263
REMARK  112  A    between atoms: _263  and  _264
REMARK  113  A    between atoms: _273  and  _275
REMARK  114  A    between atoms: _275  and  _276
REMARK  115  A    between atoms: _275  and  _278
REMARK  116  A    between atoms: _278  and  _279
REMARK  117  A    between atoms: _284  and  _286
REMARK  118  A    between atoms: _286  and  _287
REMARK  119  A    between atoms: _286  and  _289
REMARK  120  A    between atoms: _289  and  _290
REMARK  121  A    between atoms: _290  and  _291
REMARK  122  A    between atoms: _291  and  _292
REMARK  123  A    between atoms: _301  and  _303
REMARK  124  A    between atoms: _303  and  _304
REMARK  125  A    between atoms: _303  and  _306
REMARK  126  A    between atoms: _306  and  _307
REMARK  127  A    between atoms: _310  and  _312
REMARK  128  A    between atoms: _312  and  _313
REMARK  129  A    between atoms: _312  and  _315
REMARK  130  A    between atoms: _315  and  _316
REMARK  131  A    between atoms: _319  and  _321
REMARK  132  A    between atoms: _321  and  _322
REMARK  133  A    between atoms: _321  and  _324
REMARK  134  A    between atoms: _324  and  _325
REMARK  135  A    between atoms: _328  and  _330
REMARK  136  A    between atoms: _330  and  _331
REMARK  137  A    between atoms: _330  and  _333
REMARK  138  A    between atoms: _333  and  _334
REMARK  139  A    between atoms: _337  and  _339
REMARK  140  A    between atoms: _339  and  _340
REMARK  141  A    between atoms: _342  and  _344
REMARK  142  A    between atoms: _344  and  _345
REMARK  143  A    between atoms: _348  and  _350
REMARK  144  A    between atoms: _350  and  _351
REMARK  145  A    between atoms: _350  and  _353
REMARK  146  A    between atoms: _353  and  _354
REMARK  147  A    between atoms: _357  and  _359
REMARK  148  A    between atoms: _359  and  _360
REMARK  149  A    between atoms: _359  and  _362
REMARK  150  A    between atoms: _362  and  _363
REMARK  151  A    between atoms: _366  and  _368
REMARK  152  A    between atoms: _368  and  _369
REMARK  153  A    between atoms: _368  and  _371
REMARK  154  A    between atoms: _371  and  _372
REMARK  155  A    between atoms: _375  and  _377
REMARK  156  A    between atoms: _377  and  _378
REMARK  157  A    between atoms: _377  and  _380
REMARK  158  A    between atoms: _383  and  _385
REMARK  159  A    between atoms: _385  and  _386
REMARK  160  A    between atoms: _385  and  _388
REMARK  161  A    between atoms: _388  and  _389
REMARK  162  A    between atoms: _389  and  _390
REMARK  163  A    between atoms: _390  and  _391
REMARK  164  A    between atoms: _391  and  _392
REMARK  165  A    between atoms: _396  and  _398
REMARK  166  A    between atoms: _398  and  _399
REMARK  167  A    between atoms: _398  and  _401
REMARK  168  A    between atoms: _401  and  _402
REMARK  169  A    between atoms: _402  and  _403
REMARK  170  A    between atoms: _405  and  _407
REMARK  171  A    between atoms: _407  and  _408
REMARK  172  A    between atoms: _407  and  _410
REMARK  173  A    between atoms: _410  and  _411
REMARK  174  A    between atoms: _414  and  _416
REMARK  175  A    between atoms: _416  and  _417
REMARK  176  A    between atoms: _419  and  _421
REMARK  177  A    between atoms: _421  and  _422
REMARK  178  A    between atoms: _424  and  _426
REMARK  179  A    between atoms: _426  and  _427
REMARK  180  A    between atoms: _426  and  _429
REMARK  181  A    between atoms: _429  and  _430
REMARK  182  A    between atoms: _433  and  _435
REMARK  183  A    between atoms: _435  and  _436
REMARK  184  A    between atoms: _438  and  _440
REMARK  185  A    between atoms: _440  and  _441
REMARK  186  A    between atoms: _443  and  _445
REMARK  187  A    between atoms: _445  and  _446
REMARK  188  A    between atoms: _445  and  _448
REMARK  189  A    between atoms: _448  and  _449
REMARK  190  A    between atoms: _455  and  _457
REMARK  191  A    between atoms: _457  and  _458
REMARK  192  A    between atoms: _457  and  _460
REMARK  193  A    between atoms: _460  and  _461
REMARK  194  A    between atoms: _464  and  _466
REMARK  195  A    between atoms: _466  and  _467
REMARK  196  A    between atoms: _466  and  _469
REMARK  197  A    between atoms: _469  and  _470
REMARK  198  A    between atoms: _473  and  _475
REMARK  199  A    between atoms: _475  and  _476
REMARK  200  A    between atoms: _475  and  _478
REMARK  201  A    between atoms: _478  and  _479
REMARK  202  A    between atoms: _483  and  _484
REMARK  203  A    between atoms: _489  and  _491
REMARK  204  A    between atoms: _491  and  _492
REMARK  205  A    between atoms: _491  and  _494
REMARK  206  A    between atoms: _497  and  _499
REMARK  207  A    between atoms: _499  and  _500
REMARK  208  A    between atoms: _499  and  _502
REMARK  209  A    between atoms: _502  and  _503
REMARK  210  A    between atoms: _508  and  _510
REMARK  211  A    between atoms: _510  and  _511
REMARK  212  A    between atoms: _510  and  _513
REMARK  213  A    between atoms: _513  and  _514
REMARK  214  A    between atoms: _517  and  _519
REMARK  215  A    between atoms: _519  and  _520
REMARK  216  A    between atoms: _519  and  _522
REMARK  217  A    between atoms: _522  and  _523
REMARK  218  A    between atoms: _526  and  _528
REMARK  219  A    between atoms: _528  and  _529
REMARK  220  A    between atoms: _531  and  _533
REMARK  221  A    between atoms: _533  and  _534
REMARK  222  A    between atoms: _533  and  _536
REMARK  223  A    between atoms: _536  and  _537
REMARK  224  A    between atoms: _537  and  _538
REMARK  225  A    between atoms: _538  and  _539
REMARK  226  A    between atoms: _548  and  _550
REMARK  227  A    between atoms: _550  and  _551
REMARK  228  A    between atoms: _550  and  _553
REMARK  229  A    between atoms: _553  and  _554
REMARK                            x       y       z     vdW  Elec       q    Type
REMARK                         _______ _______ _______ _____ _____    ______ ____
ROOT
ATOM      1  O   HOH     1      24.678  40.367  16.922  0.00  0.00    +0.000 OA
ENDROOT
TORSDOF 0
REMARK  Name = ../refined-set-2016/3mxe/3mxe_pocket.pdb
REMARK  229 active torsions:
REMARK  status: ('A' for Active; 'I' for Inactive)
REMARK    1  A    between atoms: _1  and  _3
REMARK    2  A    between atoms: _3  and  _4
REMARK    3  A    between atoms: _3  and  _6
REMARK    4  A    between atoms: _6  and  _7
REMARK    5  A    between atoms: _7  and  _8
REMARK    6  A    between atoms: _8  and  _9
REMARK    7  A    between atoms: _18  and  _20
REMARK    8  A    between atoms: _20  and  _21
REMARK    9  A    between atoms: _20  and  _23
REMARK   10  A    between atoms: _23  and  _24
REMARK   11  A    between atoms: _27  and  _29
REMARK   12  A    between atoms: _29  and  _30
REMARK   13  A    between atoms: _29  and  _32
REMARK   14  A    between atoms: _32  and  _33
REMARK   15  A    between atoms: _36  and  _38
REMARK   16  A    between atoms: _38  and  _39
REMARK   17  A    between atoms: _38  and  _41
REMARK   18  A    between atoms: _41  and  _42
REMARK   19  A    between atoms: _45  and  _47
REMARK   20  A    between atoms: _47  and  _48
REMARK   21  A    between atoms: _47  and  _50
REMARK   22  A    between atoms: _50  and  _51
REMARK   23  A    between atoms: _54  and  _56
REMARK   24  A    between atoms: _56  and  _57
REMARK   25  A    between atoms: _59  and  _61
REMARK   26  A    between atoms: _61  and  _62
REMARK   27  A    between atoms: _65  and  _67
REMARK   28  A    between atoms: _67  and  _68
REMARK   29  A    between atoms: _67  and  _70
REMARK   30  A    between atoms: _70  and  _71
REMARK   31  A    between atoms: _74  and  _76
REMARK   32  A    between atoms: _76  and  _77
REMARK   33  A    between atoms: _76  and  _79
REMARK   34  A    between atoms: _79  and  _80
REMARK   35  A    between atoms: _83  and  _85
REMARK   36  A    between atoms: _85  and  _86
REMARK   37  A    between atoms: _85  and  _88
REMARK   38  A    between atoms: _88  and  _89
REMARK   39  A    between atoms: _92  and  _94
REMARK   40  A    between atoms: _94  and  _95
REMARK   41  A    between atoms: _94  and  _97
REMARK   42  A    between atoms: _100  and  _102
REMARK   43  A    between atoms: _102  and  _103
REMARK   44  A    between atoms: _102  and  _105
REMARK   45  A    between atoms: _105  and  _106
REMARK   46  A    between atoms: _106  and  _107
REMARK   47  A    between atoms: _107  and  _108
REMARK   48  A    between atoms: _108  and  _109
REMARK   49  A    between atoms: _113  and  _115
REMARK   50  A    between atoms: _115  and  _116
REMARK   51  A    between atoms: _115  and  _118
REMARK   52  A    between atoms: _118  and  _119
REMARK   53  A    between atoms: _119  and  _120
REMARK   54  A    between atoms: _122  and  _124
REMARK   55  A    between atoms: _124  and  _125
REMARK   56  A    between atoms: _124  and  _127
REMARK   57  A    between atoms: _127  and  _128
REMARK   58  A    between atoms: _131  and  _133
REMARK   59  A    between atoms: _133  and  _134
REMARK   60  A    between atoms: _136  and  _138
REMARK   61  A    between atoms: _138  and  _139
REMARK   62  A    between atoms: _141  and  _143
REMARK   63  A    between atoms: _143  and  _144
REMARK   64  A    between atoms: _143  and  _146
REMARK   65  A    between atoms: _146  and  _147
REMARK   66  A    between atoms: _150  and  _152
REMARK   67  A    between atoms: _152  and  _153
REMARK   68  A    between atoms: _155  and  _157
REMARK   69  A    between atoms: _157  and  _158
REMARK   70  A    between atoms: _160  and  _162
REMARK   71  A    between atoms: _162  and  _163
REMARK   72  A    between atoms: _162  and  _165
REMARK   73  A    between atoms: _165  and  _166
REMARK   74  A    between atoms: _172  and  _174
REMARK   75  A    between atoms: _174  and  _175
REMARK   76  A    between atoms: _174  and  _177
REMARK   77  A    between atoms: _177  and  _178
REMARK   78  A    between atoms: _181  and  _183
REMARK   79  A    between atoms: _183  and  _184
REMARK   80  A    between atoms: _183  and  _186
REMARK   81  A    between atoms: _189  and  _191
REMARK   82  A    between atoms: _191  and  _192
REMARK   83  A    between atoms: _191  and  _194
REMARK   84  A    between atoms: _194  and  _195
REMARK   85  A    between atoms: _198  and  _200
REMARK   86  A    between atoms: _200  and  _201
REMARK   87  A    between atoms: _200  and  _203
REMARK   88  A    between atoms: _203  and  _204
REMARK   89  A    between atoms: _208  and  _209
REMARK   90  A    between atoms: _214  and  _216
REMARK   91  A    between atoms: _216  and  _217
REMARK   92  A    between atoms: _216  and  _219
REMARK   93  A    between atoms: _222  and  _224
REMARK   94  A    between atoms: _224  and  _225
REMARK   95  A    between atoms: _224  and  _227
REMARK   96  A    between atoms: _227  and  _228
REMARK   97  A    between atoms: _233  and  _235
REMARK   98  A    between atoms: _235  and  _236
REMARK   99  A    between atoms: _235  and  _238
REMARK  100  A    between atoms: _238  and  _239
REMARK  101  A    between atoms: _242  and  _244
REMARK  102  A    between atoms: _244  and  _245
REMARK  103  A    between atoms: _244  and  _247
REMARK  104  A    between atoms: _247  and  _248
REMARK  105  A    between atoms: _251  and  _253
REMARK  106  A    between atoms: _253  and  _254
REMARK  107  A    between atoms: _256  and  _258
REMARK  108  A    between atoms: _258  and  _259
REMARK  109  A    between atoms: _258  and  _261
REMARK  110  A    between atoms: _261  and  _262
REMARK  111  A    between atoms: _262  and  _263
REMARK  112  A    between atoms: _263  and  _264
REMARK  113  A    between atoms: _273  and  _275
REMARK  114  A    between atoms: _275  and  _276
REMARK  115  A    between atoms: _275  and  _278
REMARK  116  A    between atoms: _278  and  _279
REMARK  117  A    between atoms: _284  and  _286
REMARK  118  A    between atoms: _286  and  _287
REMARK  119  A    between atoms: _286  and  _289
REMARK  120  A    between atoms: _289  and  _290
REMARK  121  A    between atoms: _290  and  _291
REMARK  122  A    between atoms: _291  and  _292
REMARK  123  A    between atoms: _301  and  _303
REMARK  124  A    between atoms: _303  and  _304
REMARK  125  A    between atoms: _303  and  _306
REMARK  126  A    between atoms: _306  and  _307
REMARK  127  A    between atoms: _310  and  _312
REMARK  128  A    between atoms: _312  and  _313
REMARK  129  A    between atoms: _312  and  _315
REMARK  130  A    between atoms: _315  and  _316
REMARK  131  A    between atoms: _319  and  _321
REMARK  132  A    between atoms: _321  and  _322
REMARK  133  A    between atoms: _321  and  _324
REMARK  134  A    between atoms: _324  and  _325
REMARK  135  A    between atoms: _328  and  _330
REMARK  136  A    between atoms: _330  and  _331
REMARK  137  A    between atoms: _330  and  _333
REMARK  138  A    between atoms: _333  and  _334
REMARK  139  A    between atoms: _337  and  _339
REMARK  140  A    between atoms: _339  and  _340
REMARK  141  A    between atoms: _342  and  _344
REMARK  142  A    between atoms: _344  and  _345
REMARK  143  A    between atoms: _348  and  _350
REMARK  144  A    between atoms: _350  and  _351
REMARK  145  A    between atoms: _350  and  _353
REMARK  146  A    between atoms: _353  and  _354
REMARK  147  A    between atoms: _357  and  _359
REMARK  148  A    between atoms: _359  and  _360
REMARK  149  A    between atoms: _359  and  _362
REMARK  150  A    between atoms: _362  and  _363
REMARK  151  A    between atoms: _366  and  _368
REMARK  152  A    between atoms: _368  and  _369
REMARK  153  A    between atoms: _368  and  _371
REMARK  154  A    between atoms: _371  and  _372
REMARK  155  A    between atoms: _375  and  _377
REMARK  156  A    between atoms: _377  and  _378
REMARK  157  A    between atoms: _377  and  _380
REMARK  158  A    between atoms: _383  and  _385
REMARK  159  A    between atoms: _385  and  _386
REMARK  160  A    between atoms: _385  and  _388
REMARK  161  A    between atoms: _388  and  _389
REMARK  162  A    between atoms: _389  and  _390
REMARK  163  A    between atoms: _390  and  _391
REMARK  164  A    between atoms: _391  and  _392
REMARK  165  A    between atoms: _396  and  _398
REMARK  166  A    between atoms: _398  and  _399
REMARK  167  A    between atoms: _398  and  _401
REMARK  168  A    between atoms: _401  and  _402
REMARK  169  A    between atoms: _402  and  _403
REMARK  170  A    between atoms: _405  and  _407
REMARK  171  A    between atoms: _407  and  _408
REMARK  172  A    between atoms: _407  and  _410
REMARK  173  A    between atoms: _410  and  _411
REMARK  174  A    between atoms: _414  and  _416
REMARK  175  A    between atoms: _416  and  _417
REMARK  176  A    between atoms: _419  and  _421
REMARK  177  A    between atoms: _421  and  _422
REMARK  178  A    between atoms: _424  and  _426
REMARK  179  A    between atoms: _426  and  _427
REMARK  180  A    between atoms: _426  and  _429
REMARK  181  A    between atoms: _429  and  _430
REMARK  182  A    between atoms: _433  and  _435
REMARK  183  A    between atoms: _435  and  _436
REMARK  184  A    between atoms: _438  and  _440
REMARK  185  A    between atoms: _440  and  _441
REMARK  186  A    between atoms: _443  and  _445
REMARK  187  A    between atoms: _445  and  _446
REMARK  188  A    between atoms: _445  and  _448
REMARK  189  A    between atoms: _448  and  _449
REMARK  190  A    between atoms: _455  and  _457
REMARK  191  A    between atoms: _457  and  _458
REMARK  192  A    between atoms: _457  and  _460
REMARK  193  A    between atoms: _460  and  _461
REMARK  194  A    between atoms: _464  and  _466
REMARK  195  A    between atoms: _466  and  _467
REMARK  196  A    between atoms: _466  and  _469
REMARK  197  A    between atoms: _469  and  _470
REMARK  198  A    between atoms: _473  and  _475
REMARK  199  A    between atoms: _475  and  _476
REMARK  200  A    between atoms: _475  and  _478
REMARK  201  A    between atoms: _478  and  _479
REMARK  202  A    between atoms: _483  and  _484
REMARK  203  A    between atoms: _489  and  _491
REMARK  204  A    between atoms: _491  and  _492
REMARK  205  A    between atoms: _491  and  _494
REMARK  206  A    between atoms: _497  and  _499
REMARK  207  A    between atoms: _499  and  _500
REMARK  208  A    between atoms: _499  and  _502
REMARK  209  A    between atoms: _502  and  _503
REMARK  210  A    between atoms: _508  and  _510
REMARK  211  A    between atoms: _510  and  _511
REMARK  212  A    between atoms: _510  and  _513
REMARK  213  A    between atoms: _513  and  _514
REMARK  214  A    between atoms: _517  and  _519
REMARK  215  A    between atoms: _519  and  _520
REMARK  216  A    between atoms: _519  and  _522
REMARK  217  A    between atoms: _522  and  _523
REMARK  218  A    between atoms: _526  and  _528
REMARK  219  A    between atoms: _528  and  _529
REMARK  220  A    between atoms: _531  and  _533
REMARK  221  A    between atoms: _533  and  _534
REMARK  222  A    between atoms: _533  and  _536
REMARK  223  A    between atoms: _536  and  _537
REMARK  224  A    between atoms: _537  and  _538
REMARK  225  A    between atoms: _538  and  _539
REMARK  226  A    between atoms: _548  and  _550
REMARK  227  A    between atoms: _550  and  _551
REMARK  228  A    between atoms: _550  and  _553
REMARK  229  A    between atoms: _553  and  _554
REMARK                            x       y       z     vdW  Elec       q    Type
REMARK                         _______ _______ _______ _____ _____    ______ ____
ROOT
ATOM      1  O   HOH     1      31.286  23.448  12.333  0.00  0.00    +0.000 OA
ENDROOT
TORSDOF 0
REMARK  Name = ../refined-set-2016/3mxe/3mxe_pocket.pdb
REMARK  229 active torsions:
REMARK  status: ('A' for Active; 'I' for Inactive)
REMARK    1  A    between atoms: _1  and  _3
REMARK    2  A    between atoms: _3  and  _4
REMARK    3  A    between atoms: _3  and  _6
REMARK    4  A    between atoms: _6  and  _7
REMARK    5  A    between atoms: _7  and  _8
REMARK    6  A    between atoms: _8  and  _9
REMARK    7  A    between atoms: _18  and  _20
REMARK    8  A    between atoms: _20  and  _21
REMARK    9  A    between atoms: _20  and  _23
REMARK   10  A    between atoms: _23  and  _24
REMARK   11  A    between atoms: _27  and  _29
REMARK   12  A    between atoms: _29  and  _30
REMARK   13  A    between atoms: _29  and  _32
REMARK   14  A    between atoms: _32  and  _33
REMARK   15  A    between atoms: _36  and  _38
REMARK   16  A    between atoms: _38  and  _39
REMARK   17  A    between atoms: _38  and  _41
REMARK   18  A    between atoms: _41  and  _42
REMARK   19  A    between atoms: _45  and  _47
REMARK   20  A    between atoms: _47  and  _48
REMARK   21  A    between atoms: _47  and  _50
REMARK   22  A    between atoms: _50  and  _51
REMARK   23  A    between atoms: _54  and  _56
REMARK   24  A    between atoms: _56  and  _57
REMARK   25  A    between atoms: _59  and  _61
REMARK   26  A    between atoms: _61  and  _62
REMARK   27  A    between atoms: _65  and  _67
REMARK   28  A    between atoms: _67  and  _68
REMARK   29  A    between atoms: _67  and  _70
REMARK   30  A    between atoms: _70  and  _71
REMARK   31  A    between atoms: _74  and  _76
REMARK   32  A    between atoms: _76  and  _77
REMARK   33  A    between atoms: _76  and  _79
REMARK   34  A    between atoms: _79  and  _80
REMARK   35  A    between atoms: _83  and  _85
REMARK   36  A    between atoms: _85  and  _86
REMARK   37  A    between atoms: _85  and  _88
REMARK   38  A    between atoms: _88  and  _89
REMARK   39  A    between atoms: _92  and  _94
REMARK   40  A    between atoms: _94  and  _95
REMARK   41  A    between atoms: _94  and  _97
REMARK   42  A    between atoms: _100  and  _102
REMARK   43  A    between atoms: _102  and  _103
REMARK   44  A    between atoms: _102  and  _105
REMARK   45  A    between atoms: _105  and  _106
REMARK   46  A    between atoms: _106  and  _107
REMARK   47  A    between atoms: _107  and  _108
REMARK   48  A    between atoms: _108  and  _109
REMARK   49  A    between atoms: _113  and  _115
REMARK   50  A    between atoms: _115  and  _116
REMARK   51  A    between atoms: _115  and  _118
REMARK   52  A    between atoms: _118  and  _119
REMARK   53  A    between atoms: _119  and  _120
REMARK   54  A    between atoms: _122  and  _124
REMARK   55  A    between atoms: _124  and  _125
REMARK   56  A    between atoms: _124  and  _127
REMARK   57  A    between atoms: _127  and  _128
REMARK   58  A    between atoms: _131  and  _133
REMARK   59  A    between atoms: _133  and  _134
REMARK   60  A    between atoms: _136  and  _138
REMARK   61  A    between atoms: _138  and  _139
REMARK   62  A    between atoms: _141  and  _143
REMARK   63  A    between atoms: _143  and  _144
REMARK   64  A    between atoms: _143  and  _146
REMARK   65  A    between atoms: _146  and  _147
REMARK   66  A    between atoms: _150  and  _152
REMARK   67  A    between atoms: _152  and  _153
REMARK   68  A    between atoms: _155  and  _157
REMARK   69  A    between atoms: _157  and  _158
REMARK   70  A    between atoms: _160  and  _162
REMARK   71  A    between atoms: _162  and  _163
REMARK   72  A    between atoms: _162  and  _165
REMARK   73  A    between atoms: _165  and  _166
REMARK   74  A    between atoms: _172  and  _174
REMARK   75  A    between atoms: _174  and  _175
REMARK   76  A    between atoms: _174  and  _177
REMARK   77  A    between atoms: _177  and  _178
REMARK   78  A    between atoms: _181  and  _183
REMARK   79  A    between atoms: _183  and  _184
REMARK   80  A    between atoms: _183  and  _186
REMARK   81  A    between atoms: _189  and  _191
REMARK   82  A    between atoms: _191  and  _192
REMARK   83  A    between atoms: _191  and  _194
REMARK   84  A    between atoms: _194  and  _195
REMARK   85  A    between atoms: _198  and  _200
REMARK   86  A    between atoms: _200  and  _201
REMARK   87  A    between atoms: _200  and  _203
REMARK   88  A    between atoms: _203  and  _204
REMARK   89  A    between atoms: _208  and  _209
REMARK   90  A    between atoms: _214  and  _216
REMARK   91  A    between atoms: _216  and  _217
REMARK   92  A    between atoms: _216  and  _219
REMARK   93  A    between atoms: _222  and  _224
REMARK   94  A    between atoms: _224  and  _225
REMARK   95  A    between atoms: _224  and  _227
REMARK   96  A    between atoms: _227  and  _228
REMARK   97  A    between atoms: _233  and  _235
REMARK   98  A    between atoms: _235  and  _236
REMARK   99  A    between atoms: _235  and  _238
REMARK  100  A    between atoms: _238  and  _239
REMARK  101  A    between atoms: _242  and  _244
REMARK  102  A    between atoms: _244  and  _245
REMARK  103  A    between atoms: _244  and  _247
REMARK  104  A    between atoms: _247  and  _248
REMARK  105  A    between atoms: _251  and  _253
REMARK  106  A    between atoms: _253  and  _254
REMARK  107  A    between atoms: _256  and  _258
REMARK  108  A    between atoms: _258  and  _259
REMARK  109  A    between atoms: _258  and  _261
REMARK  110  A    between atoms: _261  and  _262
REMARK  111  A    between atoms: _262  and  _263
REMARK  112  A    between atoms: _263  and  _264
REMARK  113  A    between atoms: _273  and  _275
REMARK  114  A    between atoms: _275  and  _276
REMARK  115  A    between atoms: _275  and  _278
REMARK  116  A    between atoms: _278  and  _279
REMARK  117  A    between atoms: _284  and  _286
REMARK  118  A    between atoms: _286  and  _287
REMARK  119  A    between atoms: _286  and  _289
REMARK  120  A    between atoms: _289  and  _290
REMARK  121  A    between atoms: _290  and  _291
REMARK  122  A    between atoms: _291  and  _292
REMARK  123  A    between atoms: _301  and  _303
REMARK  124  A    between atoms: _303  and  _304
REMARK  125  A    between atoms: _303  and  _306
REMARK  126  A    between atoms: _306  and  _307
REMARK  127  A    between atoms: _310  and  _312
REMARK  128  A    between atoms: _312  and  _313
REMARK  129  A    between atoms: _312  and  _315
REMARK  130  A    between atoms: _315  and  _316
REMARK  131  A    between atoms: _319  and  _321
REMARK  132  A    between atoms: _321  and  _322
REMARK  133  A    between atoms: _321  and  _324
REMARK  134  A    between atoms: _324  and  _325
REMARK  135  A    between atoms: _328  and  _330
REMARK  136  A    between atoms: _330  and  _331
REMARK  137  A    between atoms: _330  and  _333
REMARK  138  A    between atoms: _333  and  _334
REMARK  139  A    between atoms: _337  and  _339
REMARK  140  A    between atoms: _339  and  _340
REMARK  141  A    between atoms: _342  and  _344
REMARK  142  A    between atoms: _344  and  _345
REMARK  143  A    between atoms: _348  and  _350
REMARK  144  A    between atoms: _350  and  _351
REMARK  145  A    between atoms: _350  and  _353
REMARK  146  A    between atoms: _353  and  _354
REMARK  147  A    between atoms: _357  and  _359
REMARK  148  A    between atoms: _359  and  _360
REMARK  149  A    between atoms: _359  and  _362
REMARK  150  A    between atoms: _362  and  _363
REMARK  151  A    between atoms: _366  and  _368
REMARK  152  A    between atoms: _368  and  _369
REMARK  153  A    between atoms: _368  and  _371
REMARK  154  A    between atoms: _371  and  _372
REMARK  155  A    between atoms: _375  and  _377
REMARK  156  A    between atoms: _377  and  _378
REMARK  157  A    between atoms: _377  and  _380
REMARK  158  A    between atoms: _383  and  _385
REMARK  159  A    between atoms: _385  and  _386
REMARK  160  A    between atoms: _385  and  _388
REMARK  161  A    between atoms: _388  and  _389
REMARK  162  A    between atoms: _389  and  _390
REMARK  163  A    between atoms: _390  and  _391
REMARK  164  A    between atoms: _391  and  _392
REMARK  165  A    between atoms: _396  and  _398
REMARK  166  A    between atoms: _398  and  _399
REMARK  167  A    between atoms: _398  and  _401
REMARK  168  A    between atoms: _401  and  _402
REMARK  169  A    between atoms: _402  and  _403
REMARK  170  A    between atoms: _405  and  _407
REMARK  171  A    between atoms: _407  and  _408
REMARK  172  A    between atoms: _407  and  _410
REMARK  173  A    between atoms: _410  and  _411
REMARK  174  A    between atoms: _414  and  _416
REMARK  175  A    between atoms: _416  and  _417
REMARK  176  A    between atoms: _419  and  _421
REMARK  177  A    between atoms: _421  and  _422
REMARK  178  A    between atoms: _424  and  _426
REMARK  179  A    between atoms: _426  and  _427
REMARK  180  A    between atoms: _426  and  _429
REMARK  181  A    between atoms: _429  and  _430
REMARK  182  A    between atoms: _433  and  _435
REMARK  183  A    between atoms: _435  and  _436
REMARK  184  A    between atoms: _438  and  _440
REMARK  185  A    between atoms: _440  and  _441
REMARK  186  A    between atoms: _443  and  _445
REMARK  187  A    between atoms: _445  and  _446
REMARK  188  A    between atoms: _445  and  _448
REMARK  189  A    between atoms: _448  and  _449
REMARK  190  A    between atoms: _455  and  _457
REMARK  191  A    between atoms: _457  and  _458
REMARK  192  A    between atoms: _457  and  _460
REMARK  193  A    between atoms: _460  and  _461
REMARK  194  A    between atoms: _464  and  _466
REMARK  195  A    between atoms: _466  and  _467
REMARK  196  A    between atoms: _466  and  _469
REMARK  197  A    between atoms: _469  and  _470
REMARK  198  A    between atoms: _473  and  _475
REMARK  199  A    between atoms: _475  and  _476
REMARK  200  A    between atoms: _475  and  _478
REMARK  201  A    between atoms: _478  and  _479
REMARK  202  A    between atoms: _483  and  _484
REMARK  203  A    between atoms: _489  and  _491
REMARK  204  A    between atoms: _491  and  _492
REMARK  205  A    between atoms: _491  and  _494
REMARK  206  A    between atoms: _497  and  _499
REMARK  207  A    between atoms: _499  and  _500
REMARK  208  A    between atoms: _499  and  _502
REMARK  209  A    between atoms: _502  and  _503
REMARK  210  A    between atoms: _508  and  _510
REMARK  211  A    between atoms: _510  and  _511
REMARK  212  A    between atoms: _510  and  _513
REMARK  213  A    between atoms: _513  and  _514
REMARK  214  A    between atoms: _517  and  _519
REMARK  215  A    between atoms: _519  and  _520
REMARK  216  A    between atoms: _519  and  _522
REMARK  217  A    between atoms: _522  and  _523
REMARK  218  A    between atoms: _526  and  _528
REMARK  219  A    between atoms: _528  and  _529
REMARK  220  A    between atoms: _531  and  _533
REMARK  221  A    between atoms: _533  and  _534
REMARK  222  A    between atoms: _533  and  _536
REMARK  223  A    between atoms: _536  and  _537
REMARK  224  A    between atoms: _537  and  _538
REMARK  225  A    between atoms: _538  and  _539
REMARK  226  A    between atoms: _548  and  _550
REMARK  227  A    between atoms: _550  and  _551
REMARK  228  A    between atoms: _550  and  _553
REMARK  229  A    between atoms: _553  and  _554
REMARK                            x       y       z     vdW  Elec       q    Type
REMARK                         _______ _______ _______ _____ _____    ______ ____
ROOT
ATOM      1  O   HOH     1      19.444  26.604   5.912  0.00  0.00    +0.000 OA
ENDROOT
TORSDOF 0
REMARK  Name = ../refined-set-2016/3mxe/3mxe_pocket.pdb
REMARK  229 active torsions:
REMARK  status: ('A' for Active; 'I' for Inactive)
REMARK    1  A    between atoms: _1  and  _3
REMARK    2  A    between atoms: _3  and  _4
REMARK    3  A    between atoms: _3  and  _6
REMARK    4  A    between atoms: _6  and  _7
REMARK    5  A    between atoms: _7  and  _8
REMARK    6  A    between atoms: _8  and  _9
REMARK    7  A    between atoms: _18  and  _20
REMARK    8  A    between atoms: _20  and  _21
REMARK    9  A    between atoms: _20  and  _23
REMARK   10  A    between atoms: _23  and  _24
REMARK   11  A    between atoms: _27  and  _29
REMARK   12  A    between atoms: _29  and  _30
REMARK   13  A    between atoms: _29  and  _32
REMARK   14  A    between atoms: _32  and  _33
REMARK   15  A    between atoms: _36  and  _38
REMARK   16  A    between atoms: _38  and  _39
REMARK   17  A    between atoms: _38  and  _41
REMARK   18  A    between atoms: _41  and  _42
REMARK   19  A    between atoms: _45  and  _47
REMARK   20  A    between atoms: _47  and  _48
REMARK   21  A    between atoms: _47  and  _50
REMARK   22  A    between atoms: _50  and  _51
REMARK   23  A    between atoms: _54  and  _56
REMARK   24  A    between atoms: _56  and  _57
REMARK   25  A    between atoms: _59  and  _61
REMARK   26  A    between atoms: _61  and  _62
REMARK   27  A    between atoms: _65  and  _67
REMARK   28  A    between atoms: _67  and  _68
REMARK   29  A    between atoms: _67  and  _70
REMARK   30  A    between atoms: _70  and  _71
REMARK   31  A    between atoms: _74  and  _76
REMARK   32  A    between atoms: _76  and  _77
REMARK   33  A    between atoms: _76  and  _79
REMARK   34  A    between atoms: _79  and  _80
REMARK   35  A    between atoms: _83  and  _85
REMARK   36  A    between atoms: _85  and  _86
REMARK   37  A    between atoms: _85  and  _88
REMARK   38  A    between atoms: _88  and  _89
REMARK   39  A    between atoms: _92  and  _94
REMARK   40  A    between atoms: _94  and  _95
REMARK   41  A    between atoms: _94  and  _97
REMARK   42  A    between atoms: _100  and  _102
REMARK   43  A    between atoms: _102  and  _103
REMARK   44  A    between atoms: _102  and  _105
REMARK   45  A    between atoms: _105  and  _106
REMARK   46  A    between atoms: _106  and  _107
REMARK   47  A    between atoms: _107  and  _108
REMARK   48  A    between atoms: _108  and  _109
REMARK   49  A    between atoms: _113  and  _115
REMARK   50  A    between atoms: _115  and  _116
REMARK   51  A    between atoms: _115  and  _118
REMARK   52  A    between atoms: _118  and  _119
REMARK   53  A    between atoms: _119  and  _120
REMARK   54  A    between atoms: _122  and  _124
REMARK   55  A    between atoms: _124  and  _125
REMARK   56  A    between atoms: _124  and  _127
REMARK   57  A    between atoms: _127  and  _128
REMARK   58  A    between atoms: _131  and  _133
REMARK   59  A    between atoms: _133  and  _134
REMARK   60  A    between atoms: _136  and  _138
REMARK   61  A    between atoms: _138  and  _139
REMARK   62  A    between atoms: _141  and  _143
REMARK   63  A    between atoms: _143  and  _144
REMARK   64  A    between atoms: _143  and  _146
REMARK   65  A    between atoms: _146  and  _147
REMARK   66  A    between atoms: _150  and  _152
REMARK   67  A    between atoms: _152  and  _153
REMARK   68  A    between atoms: _155  and  _157
REMARK   69  A    between atoms: _157  and  _158
REMARK   70  A    between atoms: _160  and  _162
REMARK   71  A    between atoms: _162  and  _163
REMARK   72  A    between atoms: _162  and  _165
REMARK   73  A    between atoms: _165  and  _166
REMARK   74  A    between atoms: _172  and  _174
REMARK   75  A    between atoms: _174  and  _175
REMARK   76  A    between atoms: _174  and  _177
REMARK   77  A    between atoms: _177  and  _178
REMARK   78  A    between atoms: _181  and  _183
REMARK   79  A    between atoms: _183  and  _184
REMARK   80  A    between atoms: _183  and  _186
REMARK   81  A    between atoms: _189  and  _191
REMARK   82  A    between atoms: _191  and  _192
REMARK   83  A    between atoms: _191  and  _194
REMARK   84  A    between atoms: _194  and  _195
REMARK   85  A    between atoms: _198  and  _200
REMARK   86  A    between atoms: _200  and  _201
REMARK   87  A    between atoms: _200  and  _203
REMARK   88  A    between atoms: _203  and  _204
REMARK   89  A    between atoms: _208  and  _209
REMARK   90  A    between atoms: _214  and  _216
REMARK   91  A    between atoms: _216  and  _217
REMARK   92  A    between atoms: _216  and  _219
REMARK   93  A    between atoms: _222  and  _224
REMARK   94  A    between atoms: _224  and  _225
REMARK   95  A    between atoms: _224  and  _227
REMARK   96  A    between atoms: _227  and  _228
REMARK   97  A    between atoms: _233  and  _235
REMARK   98  A    between atoms: _235  and  _236
REMARK   99  A    between atoms: _235  and  _238
REMARK  100  A    between atoms: _238  and  _239
REMARK  101  A    between atoms: _242  and  _244
REMARK  102  A    between atoms: _244  and  _245
REMARK  103  A    between atoms: _244  and  _247
REMARK  104  A    between atoms: _247  and  _248
REMARK  105  A    between atoms: _251  and  _253
REMARK  106  A    between atoms: _253  and  _254
REMARK  107  A    between atoms: _256  and  _258
REMARK  108  A    between atoms: _258  and  _259
REMARK  109  A    between atoms: _258  and  _261
REMARK  110  A    between atoms: _261  and  _262
REMARK  111  A    between atoms: _262  and  _263
REMARK  112  A    between atoms: _263  and  _264
REMARK  113  A    between atoms: _273  and  _275
REMARK  114  A    between atoms: _275  and  _276
REMARK  115  A    between atoms: _275  and  _278
REMARK  116  A    between atoms: _278  and  _279
REMARK  117  A    between atoms: _284  and  _286
REMARK  118  A    between atoms: _286  and  _287
REMARK  119  A    between atoms: _286  and  _289
REMARK  120  A    between atoms: _289  and  _290
REMARK  121  A    between atoms: _290  and  _291
REMARK  122  A    between atoms: _291  and  _292
REMARK  123  A    between atoms: _301  and  _303
REMARK  124  A    between atoms: _303  and  _304
REMARK  125  A    between atoms: _303  and  _306
REMARK  126  A    between atoms: _306  and  _307
REMARK  127  A    between atoms: _310  and  _312
REMARK  128  A    between atoms: _312  and  _313
REMARK  129  A    between atoms: _312  and  _315
REMARK  130  A    between atoms: _315  and  _316
REMARK  131  A    between atoms: _319  and  _321
REMARK  132  A    between atoms: _321  and  _322
REMARK  133  A    between atoms: _321  and  _324
REMARK  134  A    between atoms: _324  and  _325
REMARK  135  A    between atoms: _328  and  _330
REMARK  136  A    between atoms: _330  and  _331
REMARK  137  A    between atoms: _330  and  _333
REMARK  138  A    between atoms: _333  and  _334
REMARK  139  A    between atoms: _337  and  _339
REMARK  140  A    between atoms: _339  and  _340
REMARK  141  A    between atoms: _342  and  _344
REMARK  142  A    between atoms: _344  and  _345
REMARK  143  A    between atoms: _348  and  _350
REMARK  144  A    between atoms: _350  and  _351
REMARK  145  A    between atoms: _350  and  _353
REMARK  146  A    between atoms: _353  and  _354
REMARK  147  A    between atoms: _357  and  _359
REMARK  148  A    between atoms: _359  and  _360
REMARK  149  A    between atoms: _359  and  _362
REMARK  150  A    between atoms: _362  and  _363
REMARK  151  A    between atoms: _366  and  _368
REMARK  152  A    between atoms: _368  and  _369
REMARK  153  A    between atoms: _368  and  _371
REMARK  154  A    between atoms: _371  and  _372
REMARK  155  A    between atoms: _375  and  _377
REMARK  156  A    between atoms: _377  and  _378
REMARK  157  A    between atoms: _377  and  _380
REMARK  158  A    between atoms: _383  and  _385
REMARK  159  A    between atoms: _385  and  _386
REMARK  160  A    between atoms: _385  and  _388
REMARK  161  A    between atoms: _388  and  _389
REMARK  162  A    between atoms: _389  and  _390
REMARK  163  A    between atoms: _390  and  _391
REMARK  164  A    between atoms: _391  and  _392
REMARK  165  A    between atoms: _396  and  _398
REMARK  166  A    between atoms: _398  and  _399
REMARK  167  A    between atoms: _398  and  _401
REMARK  168  A    between atoms: _401  and  _402
REMARK  169  A    between atoms: _402  and  _403
REMARK  170  A    between atoms: _405  and  _407
REMARK  171  A    between atoms: _407  and  _408
REMARK  172  A    between atoms: _407  and  _410
REMARK  173  A    between atoms: _410  and  _411
REMARK  174  A    between atoms: _414  and  _416
REMARK  175  A    between atoms: _416  and  _417
REMARK  176  A    between atoms: _419  and  _421
REMARK  177  A    between atoms: _421  and  _422
REMARK  178  A    between atoms: _424  and  _426
REMARK  179  A    between atoms: _426  and  _427
REMARK  180  A    between atoms: _426  and  _429
REMARK  181  A    between atoms: _429  and  _430
REMARK  182  A    between atoms: _433  and  _435
REMARK  183  A    between atoms: _435  and  _436
REMARK  184  A    between atoms: _438  and  _440
REMARK  185  A    between atoms: _440  and  _441
REMARK  186  A    between atoms: _443  and  _445
REMARK  187  A    between atoms: _445  and  _446
REMARK  188  A    between atoms: _445  and  _448
REMARK  189  A    between atoms: _448  and  _449
REMARK  190  A    between atoms: _455  and  _457
REMARK  191  A    between atoms: _457  and  _458
REMARK  192  A    between atoms: _457  and  _460
REMARK  193  A    between atoms: _460  and  _461
REMARK  194  A    between atoms: _464  and  _466
REMARK  195  A    between atoms: _466  and  _467
REMARK  196  A    between atoms: _466  and  _469
REMARK  197  A    between atoms: _469  and  _470
REMARK  198  A    between atoms: _473  and  _475
REMARK  199  A    between atoms: _475  and  _476
REMARK  200  A    between atoms: _475  and  _478
REMARK  201  A    between atoms: _478  and  _479
REMARK  202  A    between atoms: _483  and  _484
REMARK  203  A    between atoms: _489  and  _491
REMARK  204  A    between atoms: _491  and  _492
REMARK  205  A    between atoms: _491  and  _494
REMARK  206  A    between atoms: _497  and  _499
REMARK  207  A    between atoms: _499  and  _500
REMARK  208  A    between atoms: _499  and  _502
REMARK  209  A    between atoms: _502  and  _503
REMARK  210  A    between atoms: _508  and  _510
REMARK  211  A    between atoms: _510  and  _511
REMARK  212  A    between atoms: _510  and  _513
REMARK  213  A    between atoms: _513  and  _514
REMARK  214  A    between atoms: _517  and  _519
REMARK  215  A    between atoms: _519  and  _520
REMARK  216  A    between atoms: _519  and  _522
REMARK  217  A    between atoms: _522  and  _523
REMARK  218  A    between atoms: _526  and  _528
REMARK  219  A    between atoms: _528  and  _529
REMARK  220  A    between atoms: _531  and  _533
REMARK  221  A    between atoms: _533  and  _534
REMARK  222  A    between atoms: _533  and  _536
REMARK  223  A    between atoms: _536  and  _537
REMARK  224  A    between atoms: _537  and  _538
REMARK  225  A    between atoms: _538  and  _539
REMARK  226  A    between atoms: _548  and  _550
REMARK  227  A    between atoms: _550  and  _551
REMARK  228  A    between atoms: _550  and  _553
REMARK  229  A    between atoms: _553  and  _554
REMARK                            x       y       z     vdW  Elec       q    Type
REMARK                         _______ _______ _______ _____ _____    ______ ____
ROOT
ATOM      1  O   HOH     1      26.236  18.428  13.470  0.00  0.00    +0.000 OA
ENDROOT
TORSDOF 0
REMARK  Name = ../refined-set-2016/3mxe/3mxe_pocket.pdb
REMARK  229 active torsions:
REMARK  status: ('A' for Active; 'I' for Inactive)
REMARK    1  A    between atoms: _1  and  _3
REMARK    2  A    between atoms: _3  and  _4
REMARK    3  A    between atoms: _3  and  _6
REMARK    4  A    between atoms: _6  and  _7
REMARK    5  A    between atoms: _7  and  _8
REMARK    6  A    between atoms: _8  and  _9
REMARK    7  A    between atoms: _18  and  _20
REMARK    8  A    between atoms: _20  and  _21
REMARK    9  A    between atoms: _20  and  _23
REMARK   10  A    between atoms: _23  and  _24
REMARK   11  A    between atoms: _27  and  _29
REMARK   12  A    between atoms: _29  and  _30
REMARK   13  A    between atoms: _29  and  _32
REMARK   14  A    between atoms: _32  and  _33
REMARK   15  A    between atoms: _36  and  _38
REMARK   16  A    between atoms: _38  and  _39
REMARK   17  A    between atoms: _38  and  _41
REMARK   18  A    between atoms: _41  and  _42
REMARK   19  A    between atoms: _45  and  _47
REMARK   20  A    between atoms: _47  and  _48
REMARK   21  A    between atoms: _47  and  _50
REMARK   22  A    between atoms: _50  and  _51
REMARK   23  A    between atoms: _54  and  _56
REMARK   24  A    between atoms: _56  and  _57
REMARK   25  A    between atoms: _59  and  _61
REMARK   26  A    between atoms: _61  and  _62
REMARK   27  A    between atoms: _65  and  _67
REMARK   28  A    between atoms: _67  and  _68
REMARK   29  A    between atoms: _67  and  _70
REMARK   30  A    between atoms: _70  and  _71
REMARK   31  A    between atoms: _74  and  _76
REMARK   32  A    between atoms: _76  and  _77
REMARK   33  A    between atoms: _76  and  _79
REMARK   34  A    between atoms: _79  and  _80
REMARK   35  A    between atoms: _83  and  _85
REMARK   36  A    between atoms: _85  and  _86
REMARK   37  A    between atoms: _85  and  _88
REMARK   38  A    between atoms: _88  and  _89
REMARK   39  A    between atoms: _92  and  _94
REMARK   40  A    between atoms: _94  and  _95
REMARK   41  A    between atoms: _94  and  _97
REMARK   42  A    between atoms: _100  and  _102
REMARK   43  A    between atoms: _102  and  _103
REMARK   44  A    between atoms: _102  and  _105
REMARK   45  A    between atoms: _105  and  _106
REMARK   46  A    between atoms: _106  and  _107
REMARK   47  A    between atoms: _107  and  _108
REMARK   48  A    between atoms: _108  and  _109
REMARK   49  A    between atoms: _113  and  _115
REMARK   50  A    between atoms: _115  and  _116
REMARK   51  A    between atoms: _115  and  _118
REMARK   52  A    between atoms: _118  and  _119
REMARK   53  A    between atoms: _119  and  _120
REMARK   54  A    between atoms: _122  and  _124
REMARK   55  A    between atoms: _124  and  _125
REMARK   56  A    between atoms: _124  and  _127
REMARK   57  A    between atoms: _127  and  _128
REMARK   58  A    between atoms: _131  and  _133
REMARK   59  A    between atoms: _133  and  _134
REMARK   60  A    between atoms: _136  and  _138
REMARK   61  A    between atoms: _138  and  _139
REMARK   62  A    between atoms: _141  and  _143
REMARK   63  A    between atoms: _143  and  _144
REMARK   64  A    between atoms: _143  and  _146
REMARK   65  A    between atoms: _146  and  _147
REMARK   66  A    between atoms: _150  and  _152
REMARK   67  A    between atoms: _152  and  _153
REMARK   68  A    between atoms: _155  and  _157
REMARK   69  A    between atoms: _157  and  _158
REMARK   70  A    between atoms: _160  and  _162
REMARK   71  A    between atoms: _162  and  _163
REMARK   72  A    between atoms: _162  and  _165
REMARK   73  A    between atoms: _165  and  _166
REMARK   74  A    between atoms: _172  and  _174
REMARK   75  A    between atoms: _174  and  _175
REMARK   76  A    between atoms: _174  and  _177
REMARK   77  A    between atoms: _177  and  _178
REMARK   78  A    between atoms: _181  and  _183
REMARK   79  A    between atoms: _183  and  _184
REMARK   80  A    between atoms: _183  and  _186
REMARK   81  A    between atoms: _189  and  _191
REMARK   82  A    between atoms: _191  and  _192
REMARK   83  A    between atoms: _191  and  _194
REMARK   84  A    between atoms: _194  and  _195
REMARK   85  A    between atoms: _198  and  _200
REMARK   86  A    between atoms: _200  and  _201
REMARK   87  A    between atoms: _200  and  _203
REMARK   88  A    between atoms: _203  and  _204
REMARK   89  A    between atoms: _208  and  _209
REMARK   90  A    between atoms: _214  and  _216
REMARK   91  A    between atoms: _216  and  _217
REMARK   92  A    between atoms: _216  and  _219
REMARK   93  A    between atoms: _222  and  _224
REMARK   94  A    between atoms: _224  and  _225
REMARK   95  A    between atoms: _224  and  _227
REMARK   96  A    between atoms: _227  and  _228
REMARK   97  A    between atoms: _233  and  _235
REMARK   98  A    between atoms: _235  and  _236
REMARK   99  A    between atoms: _235  and  _238
REMARK  100  A    between atoms: _238  and  _239
REMARK  101  A    between atoms: _242  and  _244
REMARK  102  A    between atoms: _244  and  _245
REMARK  103  A    between atoms: _244  and  _247
REMARK  104  A    between atoms: _247  and  _248
REMARK  105  A    between atoms: _251  and  _253
REMARK  106  A    between atoms: _253  and  _254
REMARK  107  A    between atoms: _256  and  _258
REMARK  108  A    between atoms: _258  and  _259
REMARK  109  A    between atoms: _258  and  _261
REMARK  110  A    between atoms: _261  and  _262
REMARK  111  A    between atoms: _262  and  _263
REMARK  112  A    between atoms: _263  and  _264
REMARK  113  A    between atoms: _273  and  _275
REMARK  114  A    between atoms: _275  and  _276
REMARK  115  A    between atoms: _275  and  _278
REMARK  116  A    between atoms: _278  and  _279
REMARK  117  A    between atoms: _284  and  _286
REMARK  118  A    between atoms: _286  and  _287
REMARK  119  A    between atoms: _286  and  _289
REMARK  120  A    between atoms: _289  and  _290
REMARK  121  A    between atoms: _290  and  _291
REMARK  122  A    between atoms: _291  and  _292
REMARK  123  A    between atoms: _301  and  _303
REMARK  124  A    between atoms: _303  and  _304
REMARK  125  A    between atoms: _303  and  _306
REMARK  126  A    between atoms: _306  and  _307
REMARK  127  A    between atoms: _310  and  _312
REMARK  128  A    between atoms: _312  and  _313
REMARK  129  A    between atoms: _312  and  _315
REMARK  130  A    between atoms: _315  and  _316
REMARK  131  A    between atoms: _319  and  _321
REMARK  132  A    between atoms: _321  and  _322
REMARK  133  A    between atoms: _321  and  _324
REMARK  134  A    between atoms: _324  and  _325
REMARK  135  A    between atoms: _328  and  _330
REMARK  136  A    between atoms: _330  and  _331
REMARK  137  A    between atoms: _330  and  _333
REMARK  138  A    between atoms: _333  and  _334
REMARK  139  A    between atoms: _337  and  _339
REMARK  140  A    between atoms: _339  and  _340
REMARK  141  A    between atoms: _342  and  _344
REMARK  142  A    between atoms: _344  and  _345
REMARK  143  A    between atoms: _348  and  _350
REMARK  144  A    between atoms: _350  and  _351
REMARK  145  A    between atoms: _350  and  _353
REMARK  146  A    between atoms: _353  and  _354
REMARK  147  A    between atoms: _357  and  _359
REMARK  148  A    between atoms: _359  and  _360
REMARK  149  A    between atoms: _359  and  _362
REMARK  150  A    between atoms: _362  and  _363
REMARK  151  A    between atoms: _366  and  _368
REMARK  152  A    between atoms: _368  and  _369
REMARK  153  A    between atoms: _368  and  _371
REMARK  154  A    between atoms: _371  and  _372
REMARK  155  A    between atoms: _375  and  _377
REMARK  156  A    between atoms: _377  and  _378
REMARK  157  A    between atoms: _377  and  _380
REMARK  158  A    between atoms: _383  and  _385
REMARK  159  A    between atoms: _385  and  _386
REMARK  160  A    between atoms: _385  and  _388
REMARK  161  A    between atoms: _388  and  _389
REMARK  162  A    between atoms: _389  and  _390
REMARK  163  A    between atoms: _390  and  _391
REMARK  164  A    between atoms: _391  and  _392
REMARK  165  A    between atoms: _396  and  _398
REMARK  166  A    between atoms: _398  and  _399
REMARK  167  A    between atoms: _398  and  _401
REMARK  168  A    between atoms: _401  and  _402
REMARK  169  A    between atoms: _402  and  _403
REMARK  170  A    between atoms: _405  and  _407
REMARK  171  A    between atoms: _407  and  _408
REMARK  172  A    between atoms: _407  and  _410
REMARK  173  A    between atoms: _410  and  _411
REMARK  174  A    between atoms: _414  and  _416
REMARK  175  A    between atoms: _416  and  _417
REMARK  176  A    between atoms: _419  and  _421
REMARK  177  A    between atoms: _421  and  _422
REMARK  178  A    between atoms: _424  and  _426
REMARK  179  A    between atoms: _426  and  _427
REMARK  180  A    between atoms: _426  and  _429
REMARK  181  A    between atoms: _429  and  _430
REMARK  182  A    between atoms: _433  and  _435
REMARK  183  A    between atoms: _435  and  _436
REMARK  184  A    between atoms: _438  and  _440
REMARK  185  A    between atoms: _440  and  _441
REMARK  186  A    between atoms: _443  and  _445
REMARK  187  A    between atoms: _445  and  _446
REMARK  188  A    between atoms: _445  and  _448
REMARK  189  A    between atoms: _448  and  _449
REMARK  190  A    between atoms: _455  and  _457
REMARK  191  A    between atoms: _457  and  _458
REMARK  192  A    between atoms: _457  and  _460
REMARK  193  A    between atoms: _460  and  _461
REMARK  194  A    between atoms: _464  and  _466
REMARK  195  A    between atoms: _466  and  _467
REMARK  196  A    between atoms: _466  and  _469
REMARK  197  A    between atoms: _469  and  _470
REMARK  198  A    between atoms: _473  and  _475
REMARK  199  A    between atoms: _475  and  _476
REMARK  200  A    between atoms: _475  and  _478
REMARK  201  A    between atoms: _478  and  _479
REMARK  202  A    between atoms: _483  and  _484
REMARK  203  A    between atoms: _489  and  _491
REMARK  204  A    between atoms: _491  and  _492
REMARK  205  A    between atoms: _491  and  _494
REMARK  206  A    between atoms: _497  and  _499
REMARK  207  A    between atoms: _499  and  _500
REMARK  208  A    between atoms: _499  and  _502
REMARK  209  A    between atoms: _502  and  _503
REMARK  210  A    between atoms: _508  and  _510
REMARK  211  A    between atoms: _510  and  _511
REMARK  212  A    between atoms: _510  and  _513
REMARK  213  A    between atoms: _513  and  _514
REMARK  214  A    between atoms: _517  and  _519
REMARK  215  A    between atoms: _519  and  _520
REMARK  216  A    between atoms: _519  and  _522
REMARK  217  A    between atoms: _522  and  _523
REMARK  218  A    between atoms: _526  and  _528
REMARK  219  A    between atoms: _528  and  _529
REMARK  220  A    between atoms: _531  and  _533
REMARK  221  A    between atoms: _533  and  _534
REMARK  222  A    between atoms: _533  and  _536
REMARK  223  A    between atoms: _536  and  _537
REMARK  224  A    between atoms: _537  and  _538
REMARK  225  A    between atoms: _538  and  _539
REMARK  226  A    between atoms: _548  and  _550
REMARK  227  A    between atoms: _550  and  _551
REMARK  228  A    between atoms: _550  and  _553
REMARK  229  A    between atoms: _553  and  _554
REMARK                            x       y       z     vdW  Elec       q    Type
REMARK                         _______ _______ _______ _____ _____    ______ ____
ROOT
ATOM      1  O   HOH     1      24.537  20.924   8.422  0.00  0.00    +0.000 OA
ENDROOT
TORSDOF 0
REMARK  Name = ../refined-set-2016/3mxe/3mxe_pocket.pdb
REMARK  229 active torsions:
REMARK  status: ('A' for Active; 'I' for Inactive)
REMARK    1  A    between atoms: _1  and  _3
REMARK    2  A    between atoms: _3  and  _4
REMARK    3  A    between atoms: _3  and  _6
REMARK    4  A    between atoms: _6  and  _7
REMARK    5  A    between atoms: _7  and  _8
REMARK    6  A    between atoms: _8  and  _9
REMARK    7  A    between atoms: _18  and  _20
REMARK    8  A    between atoms: _20  and  _21
REMARK    9  A    between atoms: _20  and  _23
REMARK   10  A    between atoms: _23  and  _24
REMARK   11  A    between atoms: _27  and  _29
REMARK   12  A    between atoms: _29  and  _30
REMARK   13  A    between atoms: _29  and  _32
REMARK   14  A    between atoms: _32  and  _33
REMARK   15  A    between atoms: _36  and  _38
REMARK   16  A    between atoms: _38  and  _39
REMARK   17  A    between atoms: _38  and  _41
REMARK   18  A    between atoms: _41  and  _42
REMARK   19  A    between atoms: _45  and  _47
REMARK   20  A    between atoms: _47  and  _48
REMARK   21  A    between atoms: _47  and  _50
REMARK   22  A    between atoms: _50  and  _51
REMARK   23  A    between atoms: _54  and  _56
REMARK   24  A    between atoms: _56  and  _57
REMARK   25  A    between atoms: _59  and  _61
REMARK   26  A    between atoms: _61  and  _62
REMARK   27  A    between atoms: _65  and  _67
REMARK   28  A    between atoms: _67  and  _68
REMARK   29  A    between atoms: _67  and  _70
REMARK   30  A    between atoms: _70  and  _71
REMARK   31  A    between atoms: _74  and  _76
REMARK   32  A    between atoms: _76  and  _77
REMARK   33  A    between atoms: _76  and  _79
REMARK   34  A    between atoms: _79  and  _80
REMARK   35  A    between atoms: _83  and  _85
REMARK   36  A    between atoms: _85  and  _86
REMARK   37  A    between atoms: _85  and  _88
REMARK   38  A    between atoms: _88  and  _89
REMARK   39  A    between atoms: _92  and  _94
REMARK   40  A    between atoms: _94  and  _95
REMARK   41  A    between atoms: _94  and  _97
REMARK   42  A    between atoms: _100  and  _102
REMARK   43  A    between atoms: _102  and  _103
REMARK   44  A    between atoms: _102  and  _105
REMARK   45  A    between atoms: _105  and  _106
REMARK   46  A    between atoms: _106  and  _107
REMARK   47  A    between atoms: _107  and  _108
REMARK   48  A    between atoms: _108  and  _109
REMARK   49  A    between atoms: _113  and  _115
REMARK   50  A    between atoms: _115  and  _116
REMARK   51  A    between atoms: _115  and  _118
REMARK   52  A    between atoms: _118  and  _119
REMARK   53  A    between atoms: _119  and  _120
REMARK   54  A    between atoms: _122  and  _124
REMARK   55  A    between atoms: _124  and  _125
REMARK   56  A    between atoms: _124  and  _127
REMARK   57  A    between atoms: _127  and  _128
REMARK   58  A    between atoms: _131  and  _133
REMARK   59  A    between atoms: _133  and  _134
REMARK   60  A    between atoms: _136  and  _138
REMARK   61  A    between atoms: _138  and  _139
REMARK   62  A    between atoms: _141  and  _143
REMARK   63  A    between atoms: _143  and  _144
REMARK   64  A    between atoms: _143  and  _146
REMARK   65  A    between atoms: _146  and  _147
REMARK   66  A    between atoms: _150  and  _152
REMARK   67  A    between atoms: _152  and  _153
REMARK   68  A    between atoms: _155  and  _157
REMARK   69  A    between atoms: _157  and  _158
REMARK   70  A    between atoms: _160  and  _162
REMARK   71  A    between atoms: _162  and  _163
REMARK   72  A    between atoms: _162  and  _165
REMARK   73  A    between atoms: _165  and  _166
REMARK   74  A    between atoms: _172  and  _174
REMARK   75  A    between atoms: _174  and  _175
REMARK   76  A    between atoms: _174  and  _177
REMARK   77  A    between atoms: _177  and  _178
REMARK   78  A    between atoms: _181  and  _183
REMARK   79  A    between atoms: _183  and  _184
REMARK   80  A    between atoms: _183  and  _186
REMARK   81  A    between atoms: _189  and  _191
REMARK   82  A    between atoms: _191  and  _192
REMARK   83  A    between atoms: _191  and  _194
REMARK   84  A    between atoms: _194  and  _195
REMARK   85  A    between atoms: _198  and  _200
REMARK   86  A    between atoms: _200  and  _201
REMARK   87  A    between atoms: _200  and  _203
REMARK   88  A    between atoms: _203  and  _204
REMARK   89  A    between atoms: _208  and  _209
REMARK   90  A    between atoms: _214  and  _216
REMARK   91  A    between atoms: _216  and  _217
REMARK   92  A    between atoms: _216  and  _219
REMARK   93  A    between atoms: _222  and  _224
REMARK   94  A    between atoms: _224  and  _225
REMARK   95  A    between atoms: _224  and  _227
REMARK   96  A    between atoms: _227  and  _228
REMARK   97  A    between atoms: _233  and  _235
REMARK   98  A    between atoms: _235  and  _236
REMARK   99  A    between atoms: _235  and  _238
REMARK  100  A    between atoms: _238  and  _239
REMARK  101  A    between atoms: _242  and  _244
REMARK  102  A    between atoms: _244  and  _245
REMARK  103  A    between atoms: _244  and  _247
REMARK  104  A    between atoms: _247  and  _248
REMARK  105  A    between atoms: _251  and  _253
REMARK  106  A    between atoms: _253  and  _254
REMARK  107  A    between atoms: _256  and  _258
REMARK  108  A    between atoms: _258  and  _259
REMARK  109  A    between atoms: _258  and  _261
REMARK  110  A    between atoms: _261  and  _262
REMARK  111  A    between atoms: _262  and  _263
REMARK  112  A    between atoms: _263  and  _264
REMARK  113  A    between atoms: _273  and  _275
REMARK  114  A    between atoms: _275  and  _276
REMARK  115  A    between atoms: _275  and  _278
REMARK  116  A    between atoms: _278  and  _279
REMARK  117  A    between atoms: _284  and  _286
REMARK  118  A    between atoms: _286  and  _287
REMARK  119  A    between atoms: _286  and  _289
REMARK  120  A    between atoms: _289  and  _290
REMARK  121  A    between atoms: _290  and  _291
REMARK  122  A    between atoms: _291  and  _292
REMARK  123  A    between atoms: _301  and  _303
REMARK  124  A    between atoms: _303  and  _304
REMARK  125  A    between atoms: _303  and  _306
REMARK  126  A    between atoms: _306  and  _307
REMARK  127  A    between atoms: _310  and  _312
REMARK  128  A    between atoms: _312  and  _313
REMARK  129  A    between atoms: _312  and  _315
REMARK  130  A    between atoms: _315  and  _316
REMARK  131  A    between atoms: _319  and  _321
REMARK  132  A    between atoms: _321  and  _322
REMARK  133  A    between atoms: _321  and  _324
REMARK  134  A    between atoms: _324  and  _325
REMARK  135  A    between atoms: _328  and  _330
REMARK  136  A    between atoms: _330  and  _331
REMARK  137  A    between atoms: _330  and  _333
REMARK  138  A    between atoms: _333  and  _334
REMARK  139  A    between atoms: _337  and  _339
REMARK  140  A    between atoms: _339  and  _340
REMARK  141  A    between atoms: _342  and  _344
REMARK  142  A    between atoms: _344  and  _345
REMARK  143  A    between atoms: _348  and  _350
REMARK  144  A    between atoms: _350  and  _351
REMARK  145  A    between atoms: _350  and  _353
REMARK  146  A    between atoms: _353  and  _354
REMARK  147  A    between atoms: _357  and  _359
REMARK  148  A    between atoms: _359  and  _360
REMARK  149  A    between atoms: _359  and  _362
REMARK  150  A    between atoms: _362  and  _363
REMARK  151  A    between atoms: _366  and  _368
REMARK  152  A    between atoms: _368  and  _369
REMARK  153  A    between atoms: _368  and  _371
REMARK  154  A    between atoms: _371  and  _372
REMARK  155  A    between atoms: _375  and  _377
REMARK  156  A    between atoms: _377  and  _378
REMARK  157  A    between atoms: _377  and  _380
REMARK  158  A    between atoms: _383  and  _385
REMARK  159  A    between atoms: _385  and  _386
REMARK  160  A    between atoms: _385  and  _388
REMARK  161  A    between atoms: _388  and  _389
REMARK  162  A    between atoms: _389  and  _390
REMARK  163  A    between atoms: _390  and  _391
REMARK  164  A    between atoms: _391  and  _392
REMARK  165  A    between atoms: _396  and  _398
REMARK  166  A    between atoms: _398  and  _399
REMARK  167  A    between atoms: _398  and  _401
REMARK  168  A    between atoms: _401  and  _402
REMARK  169  A    between atoms: _402  and  _403
REMARK  170  A    between atoms: _405  and  _407
REMARK  171  A    between atoms: _407  and  _408
REMARK  172  A    between atoms: _407  and  _410
REMARK  173  A    between atoms: _410  and  _411
REMARK  174  A    between atoms: _414  and  _416
REMARK  175  A    between atoms: _416  and  _417
REMARK  176  A    between atoms: _419  and  _421
REMARK  177  A    between atoms: _421  and  _422
REMARK  178  A    between atoms: _424  and  _426
REMARK  179  A    between atoms: _426  and  _427
REMARK  180  A    between atoms: _426  and  _429
REMARK  181  A    between atoms: _429  and  _430
REMARK  182  A    between atoms: _433  and  _435
REMARK  183  A    between atoms: _435  and  _436
REMARK  184  A    between atoms: _438  and  _440
REMARK  185  A    between atoms: _440  and  _441
REMARK  186  A    between atoms: _443  and  _445
REMARK  187  A    between atoms: _445  and  _446
REMARK  188  A    between atoms: _445  and  _448
REMARK  189  A    between atoms: _448  and  _449
REMARK  190  A    between atoms: _455  and  _457
REMARK  191  A    between atoms: _457  and  _458
REMARK  192  A    between atoms: _457  and  _460
REMARK  193  A    between atoms: _460  and  _461
REMARK  194  A    between atoms: _464  and  _466
REMARK  195  A    between atoms: _466  and  _467
REMARK  196  A    between atoms: _466  and  _469
REMARK  197  A    between atoms: _469  and  _470
REMARK  198  A    between atoms: _473  and  _475
REMARK  199  A    between atoms: _475  and  _476
REMARK  200  A    between atoms: _475  and  _478
REMARK  201  A    between atoms: _478  and  _479
REMARK  202  A    between atoms: _483  and  _484
REMARK  203  A    between atoms: _489  and  _491
REMARK  204  A    between atoms: _491  and  _492
REMARK  205  A    between atoms: _491  and  _494
REMARK  206  A    between atoms: _497  and  _499
REMARK  207  A    between atoms: _499  and  _500
REMARK  208  A    between atoms: _499  and  _502
REMARK  209  A    between atoms: _502  and  _503
REMARK  210  A    between atoms: _508  and  _510
REMARK  211  A    between atoms: _510  and  _511
REMARK  212  A    between atoms: _510  and  _513
REMARK  213  A    between atoms: _513  and  _514
REMARK  214  A    between atoms: _517  and  _519
REMARK  215  A    between atoms: _519  and  _520
REMARK  216  A    between atoms: _519  and  _522
REMARK  217  A    between atoms: _522  and  _523
REMARK  218  A    between atoms: _526  and  _528
REMARK  219  A    between atoms: _528  and  _529
REMARK  220  A    between atoms: _531  and  _533
REMARK  221  A    between atoms: _533  and  _534
REMARK  222  A    between atoms: _533  and  _536
REMARK  223  A    between atoms: _536  and  _537
REMARK  224  A    between atoms: _537  and  _538
REMARK  225  A    between atoms: _538  and  _539
REMARK  226  A    between atoms: _548  and  _550
REMARK  227  A    between atoms: _550  and  _551
REMARK  228  A    between atoms: _550  and  _553
REMARK  229  A    between atoms: _553  and  _554
REMARK                            x       y       z     vdW  Elec       q    Type
REMARK                         _______ _______ _______ _____ _____    ______ ____
ROOT
ATOM      1  O   HOH     1      30.585  20.980  11.162  0.00  0.00    +0.000 OA
ENDROOT
TORSDOF 0
REMARK  Name = ../refined-set-2016/3mxe/3mxe_pocket.pdb
REMARK  229 active torsions:
REMARK  status: ('A' for Active; 'I' for Inactive)
REMARK    1  A    between atoms: _1  and  _3
REMARK    2  A    between atoms: _3  and  _4
REMARK    3  A    between atoms: _3  and  _6
REMARK    4  A    between atoms: _6  and  _7
REMARK    5  A    between atoms: _7  and  _8
REMARK    6  A    between atoms: _8  and  _9
REMARK    7  A    between atoms: _18  and  _20
REMARK    8  A    between atoms: _20  and  _21
REMARK    9  A    between atoms: _20  and  _23
REMARK   10  A    between atoms: _23  and  _24
REMARK   11  A    between atoms: _27  and  _29
REMARK   12  A    between atoms: _29  and  _30
REMARK   13  A    between atoms: _29  and  _32
REMARK   14  A    between atoms: _32  and  _33
REMARK   15  A    between atoms: _36  and  _38
REMARK   16  A    between atoms: _38  and  _39
REMARK   17  A    between atoms: _38  and  _41
REMARK   18  A    between atoms: _41  and  _42
REMARK   19  A    between atoms: _45  and  _47
REMARK   20  A    between atoms: _47  and  _48
REMARK   21  A    between atoms: _47  and  _50
REMARK   22  A    between atoms: _50  and  _51
REMARK   23  A    between atoms: _54  and  _56
REMARK   24  A    between atoms: _56  and  _57
REMARK   25  A    between atoms: _59  and  _61
REMARK   26  A    between atoms: _61  and  _62
REMARK   27  A    between atoms: _65  and  _67
REMARK   28  A    between atoms: _67  and  _68
REMARK   29  A    between atoms: _67  and  _70
REMARK   30  A    between atoms: _70  and  _71
REMARK   31  A    between atoms: _74  and  _76
REMARK   32  A    between atoms: _76  and  _77
REMARK   33  A    between atoms: _76  and  _79
REMARK   34  A    between atoms: _79  and  _80
REMARK   35  A    between atoms: _83  and  _85
REMARK   36  A    between atoms: _85  and  _86
REMARK   37  A    between atoms: _85  and  _88
REMARK   38  A    between atoms: _88  and  _89
REMARK   39  A    between atoms: _92  and  _94
REMARK   40  A    between atoms: _94  and  _95
REMARK   41  A    between atoms: _94  and  _97
REMARK   42  A    between atoms: _100  and  _102
REMARK   43  A    between atoms: _102  and  _103
REMARK   44  A    between atoms: _102  and  _105
REMARK   45  A    between atoms: _105  and  _106
REMARK   46  A    between atoms: _106  and  _107
REMARK   47  A    between atoms: _107  and  _108
REMARK   48  A    between atoms: _108  and  _109
REMARK   49  A    between atoms: _113  and  _115
REMARK   50  A    between atoms: _115  and  _116
REMARK   51  A    between atoms: _115  and  _118
REMARK   52  A    between atoms: _118  and  _119
REMARK   53  A    between atoms: _119  and  _120
REMARK   54  A    between atoms: _122  and  _124
REMARK   55  A    between atoms: _124  and  _125
REMARK   56  A    between atoms: _124  and  _127
REMARK   57  A    between atoms: _127  and  _128
REMARK   58  A    between atoms: _131  and  _133
REMARK   59  A    between atoms: _133  and  _134
REMARK   60  A    between atoms: _136  and  _138
REMARK   61  A    between atoms: _138  and  _139
REMARK   62  A    between atoms: _141  and  _143
REMARK   63  A    between atoms: _143  and  _144
REMARK   64  A    between atoms: _143  and  _146
REMARK   65  A    between atoms: _146  and  _147
REMARK   66  A    between atoms: _150  and  _152
REMARK   67  A    between atoms: _152  and  _153
REMARK   68  A    between atoms: _155  and  _157
REMARK   69  A    between atoms: _157  and  _158
REMARK   70  A    between atoms: _160  and  _162
REMARK   71  A    between atoms: _162  and  _163
REMARK   72  A    between atoms: _162  and  _165
REMARK   73  A    between atoms: _165  and  _166
REMARK   74  A    between atoms: _172  and  _174
REMARK   75  A    between atoms: _174  and  _175
REMARK   76  A    between atoms: _174  and  _177
REMARK   77  A    between atoms: _177  and  _178
REMARK   78  A    between atoms: _181  and  _183
REMARK   79  A    between atoms: _183  and  _184
REMARK   80  A    between atoms: _183  and  _186
REMARK   81  A    between atoms: _189  and  _191
REMARK   82  A    between atoms: _191  and  _192
REMARK   83  A    between atoms: _191  and  _194
REMARK   84  A    between atoms: _194  and  _195
REMARK   85  A    between atoms: _198  and  _200
REMARK   86  A    between atoms: _200  and  _201
REMARK   87  A    between atoms: _200  and  _203
REMARK   88  A    between atoms: _203  and  _204
REMARK   89  A    between atoms: _208  and  _209
REMARK   90  A    between atoms: _214  and  _216
REMARK   91  A    between atoms: _216  and  _217
REMARK   92  A    between atoms: _216  and  _219
REMARK   93  A    between atoms: _222  and  _224
REMARK   94  A    between atoms: _224  and  _225
REMARK   95  A    between atoms: _224  and  _227
REMARK   96  A    between atoms: _227  and  _228
REMARK   97  A    between atoms: _233  and  _235
REMARK   98  A    between atoms: _235  and  _236
REMARK   99  A    between atoms: _235  and  _238
REMARK  100  A    between atoms: _238  and  _239
REMARK  101  A    between atoms: _242  and  _244
REMARK  102  A    between atoms: _244  and  _245
REMARK  103  A    between atoms: _244  and  _247
REMARK  104  A    between atoms: _247  and  _248
REMARK  105  A    between atoms: _251  and  _253
REMARK  106  A    between atoms: _253  and  _254
REMARK  107  A    between atoms: _256  and  _258
REMARK  108  A    between atoms: _258  and  _259
REMARK  109  A    between atoms: _258  and  _261
REMARK  110  A    between atoms: _261  and  _262
REMARK  111  A    between atoms: _262  and  _263
REMARK  112  A    between atoms: _263  and  _264
REMARK  113  A    between atoms: _273  and  _275
REMARK  114  A    between atoms: _275  and  _276
REMARK  115  A    between atoms: _275  and  _278
REMARK  116  A    between atoms: _278  and  _279
REMARK  117  A    between atoms: _284  and  _286
REMARK  118  A    between atoms: _286  and  _287
REMARK  119  A    between atoms: _286  and  _289
REMARK  120  A    between atoms: _289  and  _290
REMARK  121  A    between atoms: _290  and  _291
REMARK  122  A    between atoms: _291  and  _292
REMARK  123  A    between atoms: _301  and  _303
REMARK  124  A    between atoms: _303  and  _304
REMARK  125  A    between atoms: _303  and  _306
REMARK  126  A    between atoms: _306  and  _307
REMARK  127  A    between atoms: _310  and  _312
REMARK  128  A    between atoms: _312  and  _313
REMARK  129  A    between atoms: _312  and  _315
REMARK  130  A    between atoms: _315  and  _316
REMARK  131  A    between atoms: _319  and  _321
REMARK  132  A    between atoms: _321  and  _322
REMARK  133  A    between atoms: _321  and  _324
REMARK  134  A    between atoms: _324  and  _325
REMARK  135  A    between atoms: _328  and  _330
REMARK  136  A    between atoms: _330  and  _331
REMARK  137  A    between atoms: _330  and  _333
REMARK  138  A    between atoms: _333  and  _334
REMARK  139  A    between atoms: _337  and  _339
REMARK  140  A    between atoms: _339  and  _340
REMARK  141  A    between atoms: _342  and  _344
REMARK  142  A    between atoms: _344  and  _345
REMARK  143  A    between atoms: _348  and  _350
REMARK  144  A    between atoms: _350  and  _351
REMARK  145  A    between atoms: _350  and  _353
REMARK  146  A    between atoms: _353  and  _354
REMARK  147  A    between atoms: _357  and  _359
REMARK  148  A    between atoms: _359  and  _360
REMARK  149  A    between atoms: _359  and  _362
REMARK  150  A    between atoms: _362  and  _363
REMARK  151  A    between atoms: _366  and  _368
REMARK  152  A    between atoms: _368  and  _369
REMARK  153  A    between atoms: _368  and  _371
REMARK  154  A    between atoms: _371  and  _372
REMARK  155  A    between atoms: _375  and  _377
REMARK  156  A    between atoms: _377  and  _378
REMARK  157  A    between atoms: _377  and  _380
REMARK  158  A    between atoms: _383  and  _385
REMARK  159  A    between atoms: _385  and  _386
REMARK  160  A    between atoms: _385  and  _388
REMARK  161  A    between atoms: _388  and  _389
REMARK  162  A    between atoms: _389  and  _390
REMARK  163  A    between atoms: _390  and  _391
REMARK  164  A    between atoms: _391  and  _392
REMARK  165  A    between atoms: _396  and  _398
REMARK  166  A    between atoms: _398  and  _399
REMARK  167  A    between atoms: _398  and  _401
REMARK  168  A    between atoms: _401  and  _402
REMARK  169  A    between atoms: _402  and  _403
REMARK  170  A    between atoms: _405  and  _407
REMARK  171  A    between atoms: _407  and  _408
REMARK  172  A    between atoms: _407  and  _410
REMARK  173  A    between atoms: _410  and  _411
REMARK  174  A    between atoms: _414  and  _416
REMARK  175  A    between atoms: _416  and  _417
REMARK  176  A    between atoms: _419  and  _421
REMARK  177  A    between atoms: _421  and  _422
REMARK  178  A    between atoms: _424  and  _426
REMARK  179  A    between atoms: _426  and  _427
REMARK  180  A    between atoms: _426  and  _429
REMARK  181  A    between atoms: _429  and  _430
REMARK  182  A    between atoms: _433  and  _435
REMARK  183  A    between atoms: _435  and  _436
REMARK  184  A    between atoms: _438  and  _440
REMARK  185  A    between atoms: _440  and  _441
REMARK  186  A    between atoms: _443  and  _445
REMARK  187  A    between atoms: _445  and  _446
REMARK  188  A    between atoms: _445  and  _448
REMARK  189  A    between atoms: _448  and  _449
REMARK  190  A    between atoms: _455  and  _457
REMARK  191  A    between atoms: _457  and  _458
REMARK  192  A    between atoms: _457  and  _460
REMARK  193  A    between atoms: _460  and  _461
REMARK  194  A    between atoms: _464  and  _466
REMARK  195  A    between atoms: _466  and  _467
REMARK  196  A    between atoms: _466  and  _469
REMARK  197  A    between atoms: _469  and  _470
REMARK  198  A    between atoms: _473  and  _475
REMARK  199  A    between atoms: _475  and  _476
REMARK  200  A    between atoms: _475  and  _478
REMARK  201  A    between atoms: _478  and  _479
REMARK  202  A    between atoms: _483  and  _484
REMARK  203  A    between atoms: _489  and  _491
REMARK  204  A    between atoms: _491  and  _492
REMARK  205  A    between atoms: _491  and  _494
REMARK  206  A    between atoms: _497  and  _499
REMARK  207  A    between atoms: _499  and  _500
REMARK  208  A    between atoms: _499  and  _502
REMARK  209  A    between atoms: _502  and  _503
REMARK  210  A    between atoms: _508  and  _510
REMARK  211  A    between atoms: _510  and  _511
REMARK  212  A    between atoms: _510  and  _513
REMARK  213  A    between atoms: _513  and  _514
REMARK  214  A    between atoms: _517  and  _519
REMARK  215  A    between atoms: _519  and  _520
REMARK  216  A    between atoms: _519  and  _522
REMARK  217  A    between atoms: _522  and  _523
REMARK  218  A    between atoms: _526  and  _528
REMARK  219  A    between atoms: _528  and  _529
REMARK  220  A    between atoms: _531  and  _533
REMARK  221  A    between atoms: _533  and  _534
REMARK  222  A    between atoms: _533  and  _536
REMARK  223  A    between atoms: _536  and  _537
REMARK  224  A    between atoms: _537  and  _538
REMARK  225  A    between atoms: _538  and  _539
REMARK  226  A    between atoms: _548  and  _550
REMARK  227  A    between atoms: _550  and  _551
REMARK  228  A    between atoms: _550  and  _553
REMARK  229  A    between atoms: _553  and  _554
REMARK                            x       y       z     vdW  Elec       q    Type
REMARK                         _______ _______ _______ _____ _____    ______ ____
ROOT
ATOM      1  O   HOH     1      30.834  21.456   8.291  0.00  0.00    +0.000 OA
ENDROOT
TORSDOF 0
REMARK  Name = ../refined-set-2016/3mxe/3mxe_pocket.pdb
REMARK  229 active torsions:
REMARK  status: ('A' for Active; 'I' for Inactive)
REMARK    1  A    between atoms: _1  and  _3
REMARK    2  A    between atoms: _3  and  _4
REMARK    3  A    between atoms: _3  and  _6
REMARK    4  A    between atoms: _6  and  _7
REMARK    5  A    between atoms: _7  and  _8
REMARK    6  A    between atoms: _8  and  _9
REMARK    7  A    between atoms: _18  and  _20
REMARK    8  A    between atoms: _20  and  _21
REMARK    9  A    between atoms: _20  and  _23
REMARK   10  A    between atoms: _23  and  _24
REMARK   11  A    between atoms: _27  and  _29
REMARK   12  A    between atoms: _29  and  _30
REMARK   13  A    between atoms: _29  and  _32
REMARK   14  A    between atoms: _32  and  _33
REMARK   15  A    between atoms: _36  and  _38
REMARK   16  A    between atoms: _38  and  _39
REMARK   17  A    between atoms: _38  and  _41
REMARK   18  A    between atoms: _41  and  _42
REMARK   19  A    between atoms: _45  and  _47
REMARK   20  A    between atoms: _47  and  _48
REMARK   21  A    between atoms: _47  and  _50
REMARK   22  A    between atoms: _50  and  _51
REMARK   23  A    between atoms: _54  and  _56
REMARK   24  A    between atoms: _56  and  _57
REMARK   25  A    between atoms: _59  and  _61
REMARK   26  A    between atoms: _61  and  _62
REMARK   27  A    between atoms: _65  and  _67
REMARK   28  A    between atoms: _67  and  _68
REMARK   29  A    between atoms: _67  and  _70
REMARK   30  A    between atoms: _70  and  _71
REMARK   31  A    between atoms: _74  and  _76
REMARK   32  A    between atoms: _76  and  _77
REMARK   33  A    between atoms: _76  and  _79
REMARK   34  A    between atoms: _79  and  _80
REMARK   35  A    between atoms: _83  and  _85
REMARK   36  A    between atoms: _85  and  _86
REMARK   37  A    between atoms: _85  and  _88
REMARK   38  A    between atoms: _88  and  _89
REMARK   39  A    between atoms: _92  and  _94
REMARK   40  A    between atoms: _94  and  _95
REMARK   41  A    between atoms: _94  and  _97
REMARK   42  A    between atoms: _100  and  _102
REMARK   43  A    between atoms: _102  and  _103
REMARK   44  A    between atoms: _102  and  _105
REMARK   45  A    between atoms: _105  and  _106
REMARK   46  A    between atoms: _106  and  _107
REMARK   47  A    between atoms: _107  and  _108
REMARK   48  A    between atoms: _108  and  _109
REMARK   49  A    between atoms: _113  and  _115
REMARK   50  A    between atoms: _115  and  _116
REMARK   51  A    between atoms: _115  and  _118
REMARK   52  A    between atoms: _118  and  _119
REMARK   53  A    between atoms: _119  and  _120
REMARK   54  A    between atoms: _122  and  _124
REMARK   55  A    between atoms: _124  and  _125
REMARK   56  A    between atoms: _124  and  _127
REMARK   57  A    between atoms: _127  and  _128
REMARK   58  A    between atoms: _131  and  _133
REMARK   59  A    between atoms: _133  and  _134
REMARK   60  A    between atoms: _136  and  _138
REMARK   61  A    between atoms: _138  and  _139
REMARK   62  A    between atoms: _141  and  _143
REMARK   63  A    between atoms: _143  and  _144
REMARK   64  A    between atoms: _143  and  _146
REMARK   65  A    between atoms: _146  and  _147
REMARK   66  A    between atoms: _150  and  _152
REMARK   67  A    between atoms: _152  and  _153
REMARK   68  A    between atoms: _155  and  _157
REMARK   69  A    between atoms: _157  and  _158
REMARK   70  A    between atoms: _160  and  _162
REMARK   71  A    between atoms: _162  and  _163
REMARK   72  A    between atoms: _162  and  _165
REMARK   73  A    between atoms: _165  and  _166
REMARK   74  A    between atoms: _172  and  _174
REMARK   75  A    between atoms: _174  and  _175
REMARK   76  A    between atoms: _174  and  _177
REMARK   77  A    between atoms: _177  and  _178
REMARK   78  A    between atoms: _181  and  _183
REMARK   79  A    between atoms: _183  and  _184
REMARK   80  A    between atoms: _183  and  _186
REMARK   81  A    between atoms: _189  and  _191
REMARK   82  A    between atoms: _191  and  _192
REMARK   83  A    between atoms: _191  and  _194
REMARK   84  A    between atoms: _194  and  _195
REMARK   85  A    between atoms: _198  and  _200
REMARK   86  A    between atoms: _200  and  _201
REMARK   87  A    between atoms: _200  and  _203
REMARK   88  A    between atoms: _203  and  _204
REMARK   89  A    between atoms: _208  and  _209
REMARK   90  A    between atoms: _214  and  _216
REMARK   91  A    between atoms: _216  and  _217
REMARK   92  A    between atoms: _216  and  _219
REMARK   93  A    between atoms: _222  and  _224
REMARK   94  A    between atoms: _224  and  _225
REMARK   95  A    between atoms: _224  and  _227
REMARK   96  A    between atoms: _227  and  _228
REMARK   97  A    between atoms: _233  and  _235
REMARK   98  A    between atoms: _235  and  _236
REMARK   99  A    between atoms: _235  and  _238
REMARK  100  A    between atoms: _238  and  _239
REMARK  101  A    between atoms: _242  and  _244
REMARK  102  A    between atoms: _244  and  _245
REMARK  103  A    between atoms: _244  and  _247
REMARK  104  A    between atoms: _247  and  _248
REMARK  105  A    between atoms: _251  and  _253
REMARK  106  A    between atoms: _253  and  _254
REMARK  107  A    between atoms: _256  and  _258
REMARK  108  A    between atoms: _258  and  _259
REMARK  109  A    between atoms: _258  and  _261
REMARK  110  A    between atoms: _261  and  _262
REMARK  111  A    between atoms: _262  and  _263
REMARK  112  A    between atoms: _263  and  _264
REMARK  113  A    between atoms: _273  and  _275
REMARK  114  A    between atoms: _275  and  _276
REMARK  115  A    between atoms: _275  and  _278
REMARK  116  A    between atoms: _278  and  _279
REMARK  117  A    between atoms: _284  and  _286
REMARK  118  A    between atoms: _286  and  _287
REMARK  119  A    between atoms: _286  and  _289
REMARK  120  A    between atoms: _289  and  _290
REMARK  121  A    between atoms: _290  and  _291
REMARK  122  A    between atoms: _291  and  _292
REMARK  123  A    between atoms: _301  and  _303
REMARK  124  A    between atoms: _303  and  _304
REMARK  125  A    between atoms: _303  and  _306
REMARK  126  A    between atoms: _306  and  _307
REMARK  127  A    between atoms: _310  and  _312
REMARK  128  A    between atoms: _312  and  _313
REMARK  129  A    between atoms: _312  and  _315
REMARK  130  A    between atoms: _315  and  _316
REMARK  131  A    between atoms: _319  and  _321
REMARK  132  A    between atoms: _321  and  _322
REMARK  133  A    between atoms: _321  and  _324
REMARK  134  A    between atoms: _324  and  _325
REMARK  135  A    between atoms: _328  and  _330
REMARK  136  A    between atoms: _330  and  _331
REMARK  137  A    between atoms: _330  and  _333
REMARK  138  A    between atoms: _333  and  _334
REMARK  139  A    between atoms: _337  and  _339
REMARK  140  A    between atoms: _339  and  _340
REMARK  141  A    between atoms: _342  and  _344
REMARK  142  A    between atoms: _344  and  _345
REMARK  143  A    between atoms: _348  and  _350
REMARK  144  A    between atoms: _350  and  _351
REMARK  145  A    between atoms: _350  and  _353
REMARK  146  A    between atoms: _353  and  _354
REMARK  147  A    between atoms: _357  and  _359
REMARK  148  A    between atoms: _359  and  _360
REMARK  149  A    between atoms: _359  and  _362
REMARK  150  A    between atoms: _362  and  _363
REMARK  151  A    between atoms: _366  and  _368
REMARK  152  A    between atoms: _368  and  _369
REMARK  153  A    between atoms: _368  and  _371
REMARK  154  A    between atoms: _371  and  _372
REMARK  155  A    between atoms: _375  and  _377
REMARK  156  A    between atoms: _377  and  _378
REMARK  157  A    between atoms: _377  and  _380
REMARK  158  A    between atoms: _383  and  _385
REMARK  159  A    between atoms: _385  and  _386
REMARK  160  A    between atoms: _385  and  _388
REMARK  161  A    between atoms: _388  and  _389
REMARK  162  A    between atoms: _389  and  _390
REMARK  163  A    between atoms: _390  and  _391
REMARK  164  A    between atoms: _391  and  _392
REMARK  165  A    between atoms: _396  and  _398
REMARK  166  A    between atoms: _398  and  _399
REMARK  167  A    between atoms: _398  and  _401
REMARK  168  A    between atoms: _401  and  _402
REMARK  169  A    between atoms: _402  and  _403
REMARK  170  A    between atoms: _405  and  _407
REMARK  171  A    between atoms: _407  and  _408
REMARK  172  A    between atoms: _407  and  _410
REMARK  173  A    between atoms: _410  and  _411
REMARK  174  A    between atoms: _414  and  _416
REMARK  175  A    between atoms: _416  and  _417
REMARK  176  A    between atoms: _419  and  _421
REMARK  177  A    between atoms: _421  and  _422
REMARK  178  A    between atoms: _424  and  _426
REMARK  179  A    between atoms: _426  and  _427
REMARK  180  A    between atoms: _426  and  _429
REMARK  181  A    between atoms: _429  and  _430
REMARK  182  A    between atoms: _433  and  _435
REMARK  183  A    between atoms: _435  and  _436
REMARK  184  A    between atoms: _438  and  _440
REMARK  185  A    between atoms: _440  and  _441
REMARK  186  A    between atoms: _443  and  _445
REMARK  187  A    between atoms: _445  and  _446
REMARK  188  A    between atoms: _445  and  _448
REMARK  189  A    between atoms: _448  and  _449
REMARK  190  A    between atoms: _455  and  _457
REMARK  191  A    between atoms: _457  and  _458
REMARK  192  A    between atoms: _457  and  _460
REMARK  193  A    between atoms: _460  and  _461
REMARK  194  A    between atoms: _464  and  _466
REMARK  195  A    between atoms: _466  and  _467
REMARK  196  A    between atoms: _466  and  _469
REMARK  197  A    between atoms: _469  and  _470
REMARK  198  A    between atoms: _473  and  _475
REMARK  199  A    between atoms: _475  and  _476
REMARK  200  A    between atoms: _475  and  _478
REMARK  201  A    between atoms: _478  and  _479
REMARK  202  A    between atoms: _483  and  _484
REMARK  203  A    between atoms: _489  and  _491
REMARK  204  A    between atoms: _491  and  _492
REMARK  205  A    between atoms: _491  and  _494
REMARK  206  A    between atoms: _497  and  _499
REMARK  207  A    between atoms: _499  and  _500
REMARK  208  A    between atoms: _499  and  _502
REMARK  209  A    between atoms: _502  and  _503
REMARK  210  A    between atoms: _508  and  _510
REMARK  211  A    between atoms: _510  and  _511
REMARK  212  A    between atoms: _510  and  _513
REMARK  213  A    between atoms: _513  and  _514
REMARK  214  A    between atoms: _517  and  _519
REMARK  215  A    between atoms: _519  and  _520
REMARK  216  A    between atoms: _519  and  _522
REMARK  217  A    between atoms: _522  and  _523
REMARK  218  A    between atoms: _526  and  _528
REMARK  219  A    between atoms: _528  and  _529
REMARK  220  A    between atoms: _531  and  _533
REMARK  221  A    between atoms: _533  and  _534
REMARK  222  A    between atoms: _533  and  _536
REMARK  223  A    between atoms: _536  and  _537
REMARK  224  A    between atoms: _537  and  _538
REMARK  225  A    between atoms: _538  and  _539
REMARK  226  A    between atoms: _548  and  _550
REMARK  227  A    between atoms: _550  and  _551
REMARK  228  A    between atoms: _550  and  _553
REMARK  229  A    between atoms: _553  and  _554
REMARK                            x       y       z     vdW  Elec       q    Type
REMARK                         _______ _______ _______ _____ _____    ______ ____
ROOT
ATOM      1  O   HOH     1      22.298  36.163  20.501  0.00  0.00    +0.000 OA
ENDROOT
TORSDOF 0
REMARK  Name = ../refined-set-2016/3mxe/3mxe_pocket.pdb
REMARK  229 active torsions:
REMARK  status: ('A' for Active; 'I' for Inactive)
REMARK    1  A    between atoms: _1  and  _3
REMARK    2  A    between atoms: _3  and  _4
REMARK    3  A    between atoms: _3  and  _6
REMARK    4  A    between atoms: _6  and  _7
REMARK    5  A    between atoms: _7  and  _8
REMARK    6  A    between atoms: _8  and  _9
REMARK    7  A    between atoms: _18  and  _20
REMARK    8  A    between atoms: _20  and  _21
REMARK    9  A    between atoms: _20  and  _23
REMARK   10  A    between atoms: _23  and  _24
REMARK   11  A    between atoms: _27  and  _29
REMARK   12  A    between atoms: _29  and  _30
REMARK   13  A    between atoms: _29  and  _32
REMARK   14  A    between atoms: _32  and  _33
REMARK   15  A    between atoms: _36  and  _38
REMARK   16  A    between atoms: _38  and  _39
REMARK   17  A    between atoms: _38  and  _41
REMARK   18  A    between atoms: _41  and  _42
REMARK   19  A    between atoms: _45  and  _47
REMARK   20  A    between atoms: _47  and  _48
REMARK   21  A    between atoms: _47  and  _50
REMARK   22  A    between atoms: _50  and  _51
REMARK   23  A    between atoms: _54  and  _56
REMARK   24  A    between atoms: _56  and  _57
REMARK   25  A    between atoms: _59  and  _61
REMARK   26  A    between atoms: _61  and  _62
REMARK   27  A    between atoms: _65  and  _67
REMARK   28  A    between atoms: _67  and  _68
REMARK   29  A    between atoms: _67  and  _70
REMARK   30  A    between atoms: _70  and  _71
REMARK   31  A    between atoms: _74  and  _76
REMARK   32  A    between atoms: _76  and  _77
REMARK   33  A    between atoms: _76  and  _79
REMARK   34  A    between atoms: _79  and  _80
REMARK   35  A    between atoms: _83  and  _85
REMARK   36  A    between atoms: _85  and  _86
REMARK   37  A    between atoms: _85  and  _88
REMARK   38  A    between atoms: _88  and  _89
REMARK   39  A    between atoms: _92  and  _94
REMARK   40  A    between atoms: _94  and  _95
REMARK   41  A    between atoms: _94  and  _97
REMARK   42  A    between atoms: _100  and  _102
REMARK   43  A    between atoms: _102  and  _103
REMARK   44  A    between atoms: _102  and  _105
REMARK   45  A    between atoms: _105  and  _106
REMARK   46  A    between atoms: _106  and  _107
REMARK   47  A    between atoms: _107  and  _108
REMARK   48  A    between atoms: _108  and  _109
REMARK   49  A    between atoms: _113  and  _115
REMARK   50  A    between atoms: _115  and  _116
REMARK   51  A    between atoms: _115  and  _118
REMARK   52  A    between atoms: _118  and  _119
REMARK   53  A    between atoms: _119  and  _120
REMARK   54  A    between atoms: _122  and  _124
REMARK   55  A    between atoms: _124  and  _125
REMARK   56  A    between atoms: _124  and  _127
REMARK   57  A    between atoms: _127  and  _128
REMARK   58  A    between atoms: _131  and  _133
REMARK   59  A    between atoms: _133  and  _134
REMARK   60  A    between atoms: _136  and  _138
REMARK   61  A    between atoms: _138  and  _139
REMARK   62  A    between atoms: _141  and  _143
REMARK   63  A    between atoms: _143  and  _144
REMARK   64  A    between atoms: _143  and  _146
REMARK   65  A    between atoms: _146  and  _147
REMARK   66  A    between atoms: _150  and  _152
REMARK   67  A    between atoms: _152  and  _153
REMARK   68  A    between atoms: _155  and  _157
REMARK   69  A    between atoms: _157  and  _158
REMARK   70  A    between atoms: _160  and  _162
REMARK   71  A    between atoms: _162  and  _163
REMARK   72  A    between atoms: _162  and  _165
REMARK   73  A    between atoms: _165  and  _166
REMARK   74  A    between atoms: _172  and  _174
REMARK   75  A    between atoms: _174  and  _175
REMARK   76  A    between atoms: _174  and  _177
REMARK   77  A    between atoms: _177  and  _178
REMARK   78  A    between atoms: _181  and  _183
REMARK   79  A    between atoms: _183  and  _184
REMARK   80  A    between atoms: _183  and  _186
REMARK   81  A    between atoms: _189  and  _191
REMARK   82  A    between atoms: _191  and  _192
REMARK   83  A    between atoms: _191  and  _194
REMARK   84  A    between atoms: _194  and  _195
REMARK   85  A    between atoms: _198  and  _200
REMARK   86  A    between atoms: _200  and  _201
REMARK   87  A    between atoms: _200  and  _203
REMARK   88  A    between atoms: _203  and  _204
REMARK   89  A    between atoms: _208  and  _209
REMARK   90  A    between atoms: _214  and  _216
REMARK   91  A    between atoms: _216  and  _217
REMARK   92  A    between atoms: _216  and  _219
REMARK   93  A    between atoms: _222  and  _224
REMARK   94  A    between atoms: _224  and  _225
REMARK   95  A    between atoms: _224  and  _227
REMARK   96  A    between atoms: _227  and  _228
REMARK   97  A    between atoms: _233  and  _235
REMARK   98  A    between atoms: _235  and  _236
REMARK   99  A    between atoms: _235  and  _238
REMARK  100  A    between atoms: _238  and  _239
REMARK  101  A    between atoms: _242  and  _244
REMARK  102  A    between atoms: _244  and  _245
REMARK  103  A    between atoms: _244  and  _247
REMARK  104  A    between atoms: _247  and  _248
REMARK  105  A    between atoms: _251  and  _253
REMARK  106  A    between atoms: _253  and  _254
REMARK  107  A    between atoms: _256  and  _258
REMARK  108  A    between atoms: _258  and  _259
REMARK  109  A    between atoms: _258  and  _261
REMARK  110  A    between atoms: _261  and  _262
REMARK  111  A    between atoms: _262  and  _263
REMARK  112  A    between atoms: _263  and  _264
REMARK  113  A    between atoms: _273  and  _275
REMARK  114  A    between atoms: _275  and  _276
REMARK  115  A    between atoms: _275  and  _278
REMARK  116  A    between atoms: _278  and  _279
REMARK  117  A    between atoms: _284  and  _286
REMARK  118  A    between atoms: _286  and  _287
REMARK  119  A    between atoms: _286  and  _289
REMARK  120  A    between atoms: _289  and  _290
REMARK  121  A    between atoms: _290  and  _291
REMARK  122  A    between atoms: _291  and  _292
REMARK  123  A    between atoms: _301  and  _303
REMARK  124  A    between atoms: _303  and  _304
REMARK  125  A    between atoms: _303  and  _306
REMARK  126  A    between atoms: _306  and  _307
REMARK  127  A    between atoms: _310  and  _312
REMARK  128  A    between atoms: _312  and  _313
REMARK  129  A    between atoms: _312  and  _315
REMARK  130  A    between atoms: _315  and  _316
REMARK  131  A    between atoms: _319  and  _321
REMARK  132  A    between atoms: _321  and  _322
REMARK  133  A    between atoms: _321  and  _324
REMARK  134  A    between atoms: _324  and  _325
REMARK  135  A    between atoms: _328  and  _330
REMARK  136  A    between atoms: _330  and  _331
REMARK  137  A    between atoms: _330  and  _333
REMARK  138  A    between atoms: _333  and  _334
REMARK  139  A    between atoms: _337  and  _339
REMARK  140  A    between atoms: _339  and  _340
REMARK  141  A    between atoms: _342  and  _344
REMARK  142  A    between atoms: _344  and  _345
REMARK  143  A    between atoms: _348  and  _350
REMARK  144  A    between atoms: _350  and  _351
REMARK  145  A    between atoms: _350  and  _353
REMARK  146  A    between atoms: _353  and  _354
REMARK  147  A    between atoms: _357  and  _359
REMARK  148  A    between atoms: _359  and  _360
REMARK  149  A    between atoms: _359  and  _362
REMARK  150  A    between atoms: _362  and  _363
REMARK  151  A    between atoms: _366  and  _368
REMARK  152  A    between atoms: _368  and  _369
REMARK  153  A    between atoms: _368  and  _371
REMARK  154  A    between atoms: _371  and  _372
REMARK  155  A    between atoms: _375  and  _377
REMARK  156  A    between atoms: _377  and  _378
REMARK  157  A    between atoms: _377  and  _380
REMARK  158  A    between atoms: _383  and  _385
REMARK  159  A    between atoms: _385  and  _386
REMARK  160  A    between atoms: _385  and  _388
REMARK  161  A    between atoms: _388  and  _389
REMARK  162  A    between atoms: _389  and  _390
REMARK  163  A    between atoms: _390  and  _391
REMARK  164  A    between atoms: _391  and  _392
REMARK  165  A    between atoms: _396  and  _398
REMARK  166  A    between atoms: _398  and  _399
REMARK  167  A    between atoms: _398  and  _401
REMARK  168  A    between atoms: _401  and  _402
REMARK  169  A    between atoms: _402  and  _403
REMARK  170  A    between atoms: _405  and  _407
REMARK  171  A    between atoms: _407  and  _408
REMARK  172  A    between atoms: _407  and  _410
REMARK  173  A    between atoms: _410  and  _411
REMARK  174  A    between atoms: _414  and  _416
REMARK  175  A    between atoms: _416  and  _417
REMARK  176  A    between atoms: _419  and  _421
REMARK  177  A    between atoms: _421  and  _422
REMARK  178  A    between atoms: _424  and  _426
REMARK  179  A    between atoms: _426  and  _427
REMARK  180  A    between atoms: _426  and  _429
REMARK  181  A    between atoms: _429  and  _430
REMARK  182  A    between atoms: _433  and  _435
REMARK  183  A    between atoms: _435  and  _436
REMARK  184  A    between atoms: _438  and  _440
REMARK  185  A    between atoms: _440  and  _441
REMARK  186  A    between atoms: _443  and  _445
REMARK  187  A    between atoms: _445  and  _446
REMARK  188  A    between atoms: _445  and  _448
REMARK  189  A    between atoms: _448  and  _449
REMARK  190  A    between atoms: _455  and  _457
REMARK  191  A    between atoms: _457  and  _458
REMARK  192  A    between atoms: _457  and  _460
REMARK  193  A    between atoms: _460  and  _461
REMARK  194  A    between atoms: _464  and  _466
REMARK  195  A    between atoms: _466  and  _467
REMARK  196  A    between atoms: _466  and  _469
REMARK  197  A    between atoms: _469  and  _470
REMARK  198  A    between atoms: _473  and  _475
REMARK  199  A    between atoms: _475  and  _476
REMARK  200  A    between atoms: _475  and  _478
REMARK  201  A    between atoms: _478  and  _479
REMARK  202  A    between atoms: _483  and  _484
REMARK  203  A    between atoms: _489  and  _491
REMARK  204  A    between atoms: _491  and  _492
REMARK  205  A    between atoms: _491  and  _494
REMARK  206  A    between atoms: _497  and  _499
REMARK  207  A    between atoms: _499  and  _500
REMARK  208  A    between atoms: _499  and  _502
REMARK  209  A    between atoms: _502  and  _503
REMARK  210  A    between atoms: _508  and  _510
REMARK  211  A    between atoms: _510  and  _511
REMARK  212  A    between atoms: _510  and  _513
REMARK  213  A    between atoms: _513  and  _514
REMARK  214  A    between atoms: _517  and  _519
REMARK  215  A    between atoms: _519  and  _520
REMARK  216  A    between atoms: _519  and  _522
REMARK  217  A    between atoms: _522  and  _523
REMARK  218  A    between atoms: _526  and  _528
REMARK  219  A    between atoms: _528  and  _529
REMARK  220  A    between atoms: _531  and  _533
REMARK  221  A    between atoms: _533  and  _534
REMARK  222  A    between atoms: _533  and  _536
REMARK  223  A    between atoms: _536  and  _537
REMARK  224  A    between atoms: _537  and  _538
REMARK  225  A    between atoms: _538  and  _539
REMARK  226  A    between atoms: _548  and  _550
REMARK  227  A    between atoms: _550  and  _551
REMARK  228  A    between atoms: _550  and  _553
REMARK  229  A    between atoms: _553  and  _554
REMARK                            x       y       z     vdW  Elec       q    Type
REMARK                         _______ _______ _______ _____ _____    ______ ____
ROOT
ATOM      1  O   HOH     1      21.974  18.459   9.679  0.00  0.00    +0.000 OA
ENDROOT
TORSDOF 0
REMARK  Name = ../refined-set-2016/3mxe/3mxe_pocket.pdb
REMARK  229 active torsions:
REMARK  status: ('A' for Active; 'I' for Inactive)
REMARK    1  A    between atoms: _1  and  _3
REMARK    2  A    between atoms: _3  and  _4
REMARK    3  A    between atoms: _3  and  _6
REMARK    4  A    between atoms: _6  and  _7
REMARK    5  A    between atoms: _7  and  _8
REMARK    6  A    between atoms: _8  and  _9
REMARK    7  A    between atoms: _18  and  _20
REMARK    8  A    between atoms: _20  and  _21
REMARK    9  A    between atoms: _20  and  _23
REMARK   10  A    between atoms: _23  and  _24
REMARK   11  A    between atoms: _27  and  _29
REMARK   12  A    between atoms: _29  and  _30
REMARK   13  A    between atoms: _29  and  _32
REMARK   14  A    between atoms: _32  and  _33
REMARK   15  A    between atoms: _36  and  _38
REMARK   16  A    between atoms: _38  and  _39
REMARK   17  A    between atoms: _38  and  _41
REMARK   18  A    between atoms: _41  and  _42
REMARK   19  A    between atoms: _45  and  _47
REMARK   20  A    between atoms: _47  and  _48
REMARK   21  A    between atoms: _47  and  _50
REMARK   22  A    between atoms: _50  and  _51
REMARK   23  A    between atoms: _54  and  _56
REMARK   24  A    between atoms: _56  and  _57
REMARK   25  A    between atoms: _59  and  _61
REMARK   26  A    between atoms: _61  and  _62
REMARK   27  A    between atoms: _65  and  _67
REMARK   28  A    between atoms: _67  and  _68
REMARK   29  A    between atoms: _67  and  _70
REMARK   30  A    between atoms: _70  and  _71
REMARK   31  A    between atoms: _74  and  _76
REMARK   32  A    between atoms: _76  and  _77
REMARK   33  A    between atoms: _76  and  _79
REMARK   34  A    between atoms: _79  and  _80
REMARK   35  A    between atoms: _83  and  _85
REMARK   36  A    between atoms: _85  and  _86
REMARK   37  A    between atoms: _85  and  _88
REMARK   38  A    between atoms: _88  and  _89
REMARK   39  A    between atoms: _92  and  _94
REMARK   40  A    between atoms: _94  and  _95
REMARK   41  A    between atoms: _94  and  _97
REMARK   42  A    between atoms: _100  and  _102
REMARK   43  A    between atoms: _102  and  _103
REMARK   44  A    between atoms: _102  and  _105
REMARK   45  A    between atoms: _105  and  _106
REMARK   46  A    between atoms: _106  and  _107
REMARK   47  A    between atoms: _107  and  _108
REMARK   48  A    between atoms: _108  and  _109
REMARK   49  A    between atoms: _113  and  _115
REMARK   50  A    between atoms: _115  and  _116
REMARK   51  A    between atoms: _115  and  _118
REMARK   52  A    between atoms: _118  and  _119
REMARK   53  A    between atoms: _119  and  _120
REMARK   54  A    between atoms: _122  and  _124
REMARK   55  A    between atoms: _124  and  _125
REMARK   56  A    between atoms: _124  and  _127
REMARK   57  A    between atoms: _127  and  _128
REMARK   58  A    between atoms: _131  and  _133
REMARK   59  A    between atoms: _133  and  _134
REMARK   60  A    between atoms: _136  and  _138
REMARK   61  A    between atoms: _138  and  _139
REMARK   62  A    between atoms: _141  and  _143
REMARK   63  A    between atoms: _143  and  _144
REMARK   64  A    between atoms: _143  and  _146
REMARK   65  A    between atoms: _146  and  _147
REMARK   66  A    between atoms: _150  and  _152
REMARK   67  A    between atoms: _152  and  _153
REMARK   68  A    between atoms: _155  and  _157
REMARK   69  A    between atoms: _157  and  _158
REMARK   70  A    between atoms: _160  and  _162
REMARK   71  A    between atoms: _162  and  _163
REMARK   72  A    between atoms: _162  and  _165
REMARK   73  A    between atoms: _165  and  _166
REMARK   74  A    between atoms: _172  and  _174
REMARK   75  A    between atoms: _174  and  _175
REMARK   76  A    between atoms: _174  and  _177
REMARK   77  A    between atoms: _177  and  _178
REMARK   78  A    between atoms: _181  and  _183
REMARK   79  A    between atoms: _183  and  _184
REMARK   80  A    between atoms: _183  and  _186
REMARK   81  A    between atoms: _189  and  _191
REMARK   82  A    between atoms: _191  and  _192
REMARK   83  A    between atoms: _191  and  _194
REMARK   84  A    between atoms: _194  and  _195
REMARK   85  A    between atoms: _198  and  _200
REMARK   86  A    between atoms: _200  and  _201
REMARK   87  A    between atoms: _200  and  _203
REMARK   88  A    between atoms: _203  and  _204
REMARK   89  A    between atoms: _208  and  _209
REMARK   90  A    between atoms: _214  and  _216
REMARK   91  A    between atoms: _216  and  _217
REMARK   92  A    between atoms: _216  and  _219
REMARK   93  A    between atoms: _222  and  _224
REMARK   94  A    between atoms: _224  and  _225
REMARK   95  A    between atoms: _224  and  _227
REMARK   96  A    between atoms: _227  and  _228
REMARK   97  A    between atoms: _233  and  _235
REMARK   98  A    between atoms: _235  and  _236
REMARK   99  A    between atoms: _235  and  _238
REMARK  100  A    between atoms: _238  and  _239
REMARK  101  A    between atoms: _242  and  _244
REMARK  102  A    between atoms: _244  and  _245
REMARK  103  A    between atoms: _244  and  _247
REMARK  104  A    between atoms: _247  and  _248
REMARK  105  A    between atoms: _251  and  _253
REMARK  106  A    between atoms: _253  and  _254
REMARK  107  A    between atoms: _256  and  _258
REMARK  108  A    between atoms: _258  and  _259
REMARK  109  A    between atoms: _258  and  _261
REMARK  110  A    between atoms: _261  and  _262
REMARK  111  A    between atoms: _262  and  _263
REMARK  112  A    between atoms: _263  and  _264
REMARK  113  A    between atoms: _273  and  _275
REMARK  114  A    between atoms: _275  and  _276
REMARK  115  A    between atoms: _275  and  _278
REMARK  116  A    between atoms: _278  and  _279
REMARK  117  A    between atoms: _284  and  _286
REMARK  118  A    between atoms: _286  and  _287
REMARK  119  A    between atoms: _286  and  _289
REMARK  120  A    between atoms: _289  and  _290
REMARK  121  A    between atoms: _290  and  _291
REMARK  122  A    between atoms: _291  and  _292
REMARK  123  A    between atoms: _301  and  _303
REMARK  124  A    between atoms: _303  and  _304
REMARK  125  A    between atoms: _303  and  _306
REMARK  126  A    between atoms: _306  and  _307
REMARK  127  A    between atoms: _310  and  _312
REMARK  128  A    between atoms: _312  and  _313
REMARK  129  A    between atoms: _312  and  _315
REMARK  130  A    between atoms: _315  and  _316
REMARK  131  A    between atoms: _319  and  _321
REMARK  132  A    between atoms: _321  and  _322
REMARK  133  A    between atoms: _321  and  _324
REMARK  134  A    between atoms: _324  and  _325
REMARK  135  A    between atoms: _328  and  _330
REMARK  136  A    between atoms: _330  and  _331
REMARK  137  A    between atoms: _330  and  _333
REMARK  138  A    between atoms: _333  and  _334
REMARK  139  A    between atoms: _337  and  _339
REMARK  140  A    between atoms: _339  and  _340
REMARK  141  A    between atoms: _342  and  _344
REMARK  142  A    between atoms: _344  and  _345
REMARK  143  A    between atoms: _348  and  _350
REMARK  144  A    between atoms: _350  and  _351
REMARK  145  A    between atoms: _350  and  _353
REMARK  146  A    between atoms: _353  and  _354
REMARK  147  A    between atoms: _357  and  _359
REMARK  148  A    between atoms: _359  and  _360
REMARK  149  A    between atoms: _359  and  _362
REMARK  150  A    between atoms: _362  and  _363
REMARK  151  A    between atoms: _366  and  _368
REMARK  152  A    between atoms: _368  and  _369
REMARK  153  A    between atoms: _368  and  _371
REMARK  154  A    between atoms: _371  and  _372
REMARK  155  A    between atoms: _375  and  _377
REMARK  156  A    between atoms: _377  and  _378
REMARK  157  A    between atoms: _377  and  _380
REMARK  158  A    between atoms: _383  and  _385
REMARK  159  A    between atoms: _385  and  _386
REMARK  160  A    between atoms: _385  and  _388
REMARK  161  A    between atoms: _388  and  _389
REMARK  162  A    between atoms: _389  and  _390
REMARK  163  A    between atoms: _390  and  _391
REMARK  164  A    between atoms: _391  and  _392
REMARK  165  A    between atoms: _396  and  _398
REMARK  166  A    between atoms: _398  and  _399
REMARK  167  A    between atoms: _398  and  _401
REMARK  168  A    between atoms: _401  and  _402
REMARK  169  A    between atoms: _402  and  _403
REMARK  170  A    between atoms: _405  and  _407
REMARK  171  A    between atoms: _407  and  _408
REMARK  172  A    between atoms: _407  and  _410
REMARK  173  A    between atoms: _410  and  _411
REMARK  174  A    between atoms: _414  and  _416
REMARK  175  A    between atoms: _416  and  _417
REMARK  176  A    between atoms: _419  and  _421
REMARK  177  A    between atoms: _421  and  _422
REMARK  178  A    between atoms: _424  and  _426
REMARK  179  A    between atoms: _426  and  _427
REMARK  180  A    between atoms: _426  and  _429
REMARK  181  A    between atoms: _429  and  _430
REMARK  182  A    between atoms: _433  and  _435
REMARK  183  A    between atoms: _435  and  _436
REMARK  184  A    between atoms: _438  and  _440
REMARK  185  A    between atoms: _440  and  _441
REMARK  186  A    between atoms: _443  and  _445
REMARK  187  A    between atoms: _445  and  _446
REMARK  188  A    between atoms: _445  and  _448
REMARK  189  A    between atoms: _448  and  _449
REMARK  190  A    between atoms: _455  and  _457
REMARK  191  A    between atoms: _457  and  _458
REMARK  192  A    between atoms: _457  and  _460
REMARK  193  A    between atoms: _460  and  _461
REMARK  194  A    between atoms: _464  and  _466
REMARK  195  A    between atoms: _466  and  _467
REMARK  196  A    between atoms: _466  and  _469
REMARK  197  A    between atoms: _469  and  _470
REMARK  198  A    between atoms: _473  and  _475
REMARK  199  A    between atoms: _475  and  _476
REMARK  200  A    between atoms: _475  and  _478
REMARK  201  A    between atoms: _478  and  _479
REMARK  202  A    between atoms: _483  and  _484
REMARK  203  A    between atoms: _489  and  _491
REMARK  204  A    between atoms: _491  and  _492
REMARK  205  A    between atoms: _491  and  _494
REMARK  206  A    between atoms: _497  and  _499
REMARK  207  A    between atoms: _499  and  _500
REMARK  208  A    between atoms: _499  and  _502
REMARK  209  A    between atoms: _502  and  _503
REMARK  210  A    between atoms: _508  and  _510
REMARK  211  A    between atoms: _510  and  _511
REMARK  212  A    between atoms: _510  and  _513
REMARK  213  A    between atoms: _513  and  _514
REMARK  214  A    between atoms: _517  and  _519
REMARK  215  A    between atoms: _519  and  _520
REMARK  216  A    between atoms: _519  and  _522
REMARK  217  A    between atoms: _522  and  _523
REMARK  218  A    between atoms: _526  and  _528
REMARK  219  A    between atoms: _528  and  _529
REMARK  220  A    between atoms: _531  and  _533
REMARK  221  A    between atoms: _533  and  _534
REMARK  222  A    between atoms: _533  and  _536
REMARK  223  A    between atoms: _536  and  _537
REMARK  224  A    between atoms: _537  and  _538
REMARK  225  A    between atoms: _538  and  _539
REMARK  226  A    between atoms: _548  and  _550
REMARK  227  A    between atoms: _550  and  _551
REMARK  228  A    between atoms: _550  and  _553
REMARK  229  A    between atoms: _553  and  _554
REMARK                            x       y       z     vdW  Elec       q    Type
REMARK                         _______ _______ _______ _____ _____    ______ ____
ROOT
ATOM      1  O   HOH     1      20.744  25.154   3.789  0.00  0.00    +0.000 OA
ENDROOT
TORSDOF 0
REMARK  Name = ../refined-set-2016/3mxe/3mxe_pocket.pdb
REMARK  229 active torsions:
REMARK  status: ('A' for Active; 'I' for Inactive)
REMARK    1  A    between atoms: _1  and  _3
REMARK    2  A    between atoms: _3  and  _4
REMARK    3  A    between atoms: _3  and  _6
REMARK    4  A    between atoms: _6  and  _7
REMARK    5  A    between atoms: _7  and  _8
REMARK    6  A    between atoms: _8  and  _9
REMARK    7  A    between atoms: _18  and  _20
REMARK    8  A    between atoms: _20  and  _21
REMARK    9  A    between atoms: _20  and  _23
REMARK   10  A    between atoms: _23  and  _24
REMARK   11  A    between atoms: _27  and  _29
REMARK   12  A    between atoms: _29  and  _30
REMARK   13  A    between atoms: _29  and  _32
REMARK   14  A    between atoms: _32  and  _33
REMARK   15  A    between atoms: _36  and  _38
REMARK   16  A    between atoms: _38  and  _39
REMARK   17  A    between atoms: _38  and  _41
REMARK   18  A    between atoms: _41  and  _42
REMARK   19  A    between atoms: _45  and  _47
REMARK   20  A    between atoms: _47  and  _48
REMARK   21  A    between atoms: _47  and  _50
REMARK   22  A    between atoms: _50  and  _51
REMARK   23  A    between atoms: _54  and  _56
REMARK   24  A    between atoms: _56  and  _57
REMARK   25  A    between atoms: _59  and  _61
REMARK   26  A    between atoms: _61  and  _62
REMARK   27  A    between atoms: _65  and  _67
REMARK   28  A    between atoms: _67  and  _68
REMARK   29  A    between atoms: _67  and  _70
REMARK   30  A    between atoms: _70  and  _71
REMARK   31  A    between atoms: _74  and  _76
REMARK   32  A    between atoms: _76  and  _77
REMARK   33  A    between atoms: _76  and  _79
REMARK   34  A    between atoms: _79  and  _80
REMARK   35  A    between atoms: _83  and  _85
REMARK   36  A    between atoms: _85  and  _86
REMARK   37  A    between atoms: _85  and  _88
REMARK   38  A    between atoms: _88  and  _89
REMARK   39  A    between atoms: _92  and  _94
REMARK   40  A    between atoms: _94  and  _95
REMARK   41  A    between atoms: _94  and  _97
REMARK   42  A    between atoms: _100  and  _102
REMARK   43  A    between atoms: _102  and  _103
REMARK   44  A    between atoms: _102  and  _105
REMARK   45  A    between atoms: _105  and  _106
REMARK   46  A    between atoms: _106  and  _107
REMARK   47  A    between atoms: _107  and  _108
REMARK   48  A    between atoms: _108  and  _109
REMARK   49  A    between atoms: _113  and  _115
REMARK   50  A    between atoms: _115  and  _116
REMARK   51  A    between atoms: _115  and  _118
REMARK   52  A    between atoms: _118  and  _119
REMARK   53  A    between atoms: _119  and  _120
REMARK   54  A    between atoms: _122  and  _124
REMARK   55  A    between atoms: _124  and  _125
REMARK   56  A    between atoms: _124  and  _127
REMARK   57  A    between atoms: _127  and  _128
REMARK   58  A    between atoms: _131  and  _133
REMARK   59  A    between atoms: _133  and  _134
REMARK   60  A    between atoms: _136  and  _138
REMARK   61  A    between atoms: _138  and  _139
REMARK   62  A    between atoms: _141  and  _143
REMARK   63  A    between atoms: _143  and  _144
REMARK   64  A    between atoms: _143  and  _146
REMARK   65  A    between atoms: _146  and  _147
REMARK   66  A    between atoms: _150  and  _152
REMARK   67  A    between atoms: _152  and  _153
REMARK   68  A    between atoms: _155  and  _157
REMARK   69  A    between atoms: _157  and  _158
REMARK   70  A    between atoms: _160  and  _162
REMARK   71  A    between atoms: _162  and  _163
REMARK   72  A    between atoms: _162  and  _165
REMARK   73  A    between atoms: _165  and  _166
REMARK   74  A    between atoms: _172  and  _174
REMARK   75  A    between atoms: _174  and  _175
REMARK   76  A    between atoms: _174  and  _177
REMARK   77  A    between atoms: _177  and  _178
REMARK   78  A    between atoms: _181  and  _183
REMARK   79  A    between atoms: _183  and  _184
REMARK   80  A    between atoms: _183  and  _186
REMARK   81  A    between atoms: _189  and  _191
REMARK   82  A    between atoms: _191  and  _192
REMARK   83  A    between atoms: _191  and  _194
REMARK   84  A    between atoms: _194  and  _195
REMARK   85  A    between atoms: _198  and  _200
REMARK   86  A    between atoms: _200  and  _201
REMARK   87  A    between atoms: _200  and  _203
REMARK   88  A    between atoms: _203  and  _204
REMARK   89  A    between atoms: _208  and  _209
REMARK   90  A    between atoms: _214  and  _216
REMARK   91  A    between atoms: _216  and  _217
REMARK   92  A    between atoms: _216  and  _219
REMARK   93  A    between atoms: _222  and  _224
REMARK   94  A    between atoms: _224  and  _225
REMARK   95  A    between atoms: _224  and  _227
REMARK   96  A    between atoms: _227  and  _228
REMARK   97  A    between atoms: _233  and  _235
REMARK   98  A    between atoms: _235  and  _236
REMARK   99  A    between atoms: _235  and  _238
REMARK  100  A    between atoms: _238  and  _239
REMARK  101  A    between atoms: _242  and  _244
REMARK  102  A    between atoms: _244  and  _245
REMARK  103  A    between atoms: _244  and  _247
REMARK  104  A    between atoms: _247  and  _248
REMARK  105  A    between atoms: _251  and  _253
REMARK  106  A    between atoms: _253  and  _254
REMARK  107  A    between atoms: _256  and  _258
REMARK  108  A    between atoms: _258  and  _259
REMARK  109  A    between atoms: _258  and  _261
REMARK  110  A    between atoms: _261  and  _262
REMARK  111  A    between atoms: _262  and  _263
REMARK  112  A    between atoms: _263  and  _264
REMARK  113  A    between atoms: _273  and  _275
REMARK  114  A    between atoms: _275  and  _276
REMARK  115  A    between atoms: _275  and  _278
REMARK  116  A    between atoms: _278  and  _279
REMARK  117  A    between atoms: _284  and  _286
REMARK  118  A    between atoms: _286  and  _287
REMARK  119  A    between atoms: _286  and  _289
REMARK  120  A    between atoms: _289  and  _290
REMARK  121  A    between atoms: _290  and  _291
REMARK  122  A    between atoms: _291  and  _292
REMARK  123  A    between atoms: _301  and  _303
REMARK  124  A    between atoms: _303  and  _304
REMARK  125  A    between atoms: _303  and  _306
REMARK  126  A    between atoms: _306  and  _307
REMARK  127  A    between atoms: _310  and  _312
REMARK  128  A    between atoms: _312  and  _313
REMARK  129  A    between atoms: _312  and  _315
REMARK  130  A    between atoms: _315  and  _316
REMARK  131  A    between atoms: _319  and  _321
REMARK  132  A    between atoms: _321  and  _322
REMARK  133  A    between atoms: _321  and  _324
REMARK  134  A    between atoms: _324  and  _325
REMARK  135  A    between atoms: _328  and  _330
REMARK  136  A    between atoms: _330  and  _331
REMARK  137  A    between atoms: _330  and  _333
REMARK  138  A    between atoms: _333  and  _334
REMARK  139  A    between atoms: _337  and  _339
REMARK  140  A    between atoms: _339  and  _340
REMARK  141  A    between atoms: _342  and  _344
REMARK  142  A    between atoms: _344  and  _345
REMARK  143  A    between atoms: _348  and  _350
REMARK  144  A    between atoms: _350  and  _351
REMARK  145  A    between atoms: _350  and  _353
REMARK  146  A    between atoms: _353  and  _354
REMARK  147  A    between atoms: _357  and  _359
REMARK  148  A    between atoms: _359  and  _360
REMARK  149  A    between atoms: _359  and  _362
REMARK  150  A    between atoms: _362  and  _363
REMARK  151  A    between atoms: _366  and  _368
REMARK  152  A    between atoms: _368  and  _369
REMARK  153  A    between atoms: _368  and  _371
REMARK  154  A    between atoms: _371  and  _372
REMARK  155  A    between atoms: _375  and  _377
REMARK  156  A    between atoms: _377  and  _378
REMARK  157  A    between atoms: _377  and  _380
REMARK  158  A    between atoms: _383  and  _385
REMARK  159  A    between atoms: _385  and  _386
REMARK  160  A    between atoms: _385  and  _388
REMARK  161  A    between atoms: _388  and  _389
REMARK  162  A    between atoms: _389  and  _390
REMARK  163  A    between atoms: _390  and  _391
REMARK  164  A    between atoms: _391  and  _392
REMARK  165  A    between atoms: _396  and  _398
REMARK  166  A    between atoms: _398  and  _399
REMARK  167  A    between atoms: _398  and  _401
REMARK  168  A    between atoms: _401  and  _402
REMARK  169  A    between atoms: _402  and  _403
REMARK  170  A    between atoms: _405  and  _407
REMARK  171  A    between atoms: _407  and  _408
REMARK  172  A    between atoms: _407  and  _410
REMARK  173  A    between atoms: _410  and  _411
REMARK  174  A    between atoms: _414  and  _416
REMARK  175  A    between atoms: _416  and  _417
REMARK  176  A    between atoms: _419  and  _421
REMARK  177  A    between atoms: _421  and  _422
REMARK  178  A    between atoms: _424  and  _426
REMARK  179  A    between atoms: _426  and  _427
REMARK  180  A    between atoms: _426  and  _429
REMARK  181  A    between atoms: _429  and  _430
REMARK  182  A    between atoms: _433  and  _435
REMARK  183  A    between atoms: _435  and  _436
REMARK  184  A    between atoms: _438  and  _440
REMARK  185  A    between atoms: _440  and  _441
REMARK  186  A    between atoms: _443  and  _445
REMARK  187  A    between atoms: _445  and  _446
REMARK  188  A    between atoms: _445  and  _448
REMARK  189  A    between atoms: _448  and  _449
REMARK  190  A    between atoms: _455  and  _457
REMARK  191  A    between atoms: _457  and  _458
REMARK  192  A    between atoms: _457  and  _460
REMARK  193  A    between atoms: _460  and  _461
REMARK  194  A    between atoms: _464  and  _466
REMARK  195  A    between atoms: _466  and  _467
REMARK  196  A    between atoms: _466  and  _469
REMARK  197  A    between atoms: _469  and  _470
REMARK  198  A    between atoms: _473  and  _475
REMARK  199  A    between atoms: _475  and  _476
REMARK  200  A    between atoms: _475  and  _478
REMARK  201  A    between atoms: _478  and  _479
REMARK  202  A    between atoms: _483  and  _484
REMARK  203  A    between atoms: _489  and  _491
REMARK  204  A    between atoms: _491  and  _492
REMARK  205  A    between atoms: _491  and  _494
REMARK  206  A    between atoms: _497  and  _499
REMARK  207  A    between atoms: _499  and  _500
REMARK  208  A    between atoms: _499  and  _502
REMARK  209  A    between atoms: _502  and  _503
REMARK  210  A    between atoms: _508  and  _510
REMARK  211  A    between atoms: _510  and  _511
REMARK  212  A    between atoms: _510  and  _513
REMARK  213  A    between atoms: _513  and  _514
REMARK  214  A    between atoms: _517  and  _519
REMARK  215  A    between atoms: _519  and  _520
REMARK  216  A    between atoms: _519  and  _522
REMARK  217  A    between atoms: _522  and  _523
REMARK  218  A    between atoms: _526  and  _528
REMARK  219  A    between atoms: _528  and  _529
REMARK  220  A    between atoms: _531  and  _533
REMARK  221  A    between atoms: _533  and  _534
REMARK  222  A    between atoms: _533  and  _536
REMARK  223  A    between atoms: _536  and  _537
REMARK  224  A    between atoms: _537  and  _538
REMARK  225  A    between atoms: _538  and  _539
REMARK  226  A    between atoms: _548  and  _550
REMARK  227  A    between atoms: _550  and  _551
REMARK  228  A    between atoms: _550  and  _553
REMARK  229  A    between atoms: _553  and  _554
REMARK                            x       y       z     vdW  Elec       q    Type
REMARK                         _______ _______ _______ _____ _____    ______ ____
ROOT
ATOM      1  O   HOH     1      25.156  23.673   4.529  0.00  0.00    +0.000 OA
ENDROOT
TORSDOF 0
REMARK  Name = ../refined-set-2016/3mxe/3mxe_pocket.pdb
REMARK  229 active torsions:
REMARK  status: ('A' for Active; 'I' for Inactive)
REMARK    1  A    between atoms: _1  and  _3
REMARK    2  A    between atoms: _3  and  _4
REMARK    3  A    between atoms: _3  and  _6
REMARK    4  A    between atoms: _6  and  _7
REMARK    5  A    between atoms: _7  and  _8
REMARK    6  A    between atoms: _8  and  _9
REMARK    7  A    between atoms: _18  and  _20
REMARK    8  A    between atoms: _20  and  _21
REMARK    9  A    between atoms: _20  and  _23
REMARK   10  A    between atoms: _23  and  _24
REMARK   11  A    between atoms: _27  and  _29
REMARK   12  A    between atoms: _29  and  _30
REMARK   13  A    between atoms: _29  and  _32
REMARK   14  A    between atoms: _32  and  _33
REMARK   15  A    between atoms: _36  and  _38
REMARK   16  A    between atoms: _38  and  _39
REMARK   17  A    between atoms: _38  and  _41
REMARK   18  A    between atoms: _41  and  _42
REMARK   19  A    between atoms: _45  and  _47
REMARK   20  A    between atoms: _47  and  _48
REMARK   21  A    between atoms: _47  and  _50
REMARK   22  A    between atoms: _50  and  _51
REMARK   23  A    between atoms: _54  and  _56
REMARK   24  A    between atoms: _56  and  _57
REMARK   25  A    between atoms: _59  and  _61
REMARK   26  A    between atoms: _61  and  _62
REMARK   27  A    between atoms: _65  and  _67
REMARK   28  A    between atoms: _67  and  _68
REMARK   29  A    between atoms: _67  and  _70
REMARK   30  A    between atoms: _70  and  _71
REMARK   31  A    between atoms: _74  and  _76
REMARK   32  A    between atoms: _76  and  _77
REMARK   33  A    between atoms: _76  and  _79
REMARK   34  A    between atoms: _79  and  _80
REMARK   35  A    between atoms: _83  and  _85
REMARK   36  A    between atoms: _85  and  _86
REMARK   37  A    between atoms: _85  and  _88
REMARK   38  A    between atoms: _88  and  _89
REMARK   39  A    between atoms: _92  and  _94
REMARK   40  A    between atoms: _94  and  _95
REMARK   41  A    between atoms: _94  and  _97
REMARK   42  A    between atoms: _100  and  _102
REMARK   43  A    between atoms: _102  and  _103
REMARK   44  A    between atoms: _102  and  _105
REMARK   45  A    between atoms: _105  and  _106
REMARK   46  A    between atoms: _106  and  _107
REMARK   47  A    between atoms: _107  and  _108
REMARK   48  A    between atoms: _108  and  _109
REMARK   49  A    between atoms: _113  and  _115
REMARK   50  A    between atoms: _115  and  _116
REMARK   51  A    between atoms: _115  and  _118
REMARK   52  A    between atoms: _118  and  _119
REMARK   53  A    between atoms: _119  and  _120
REMARK   54  A    between atoms: _122  and  _124
REMARK   55  A    between atoms: _124  and  _125
REMARK   56  A    between atoms: _124  and  _127
REMARK   57  A    between atoms: _127  and  _128
REMARK   58  A    between atoms: _131  and  _133
REMARK   59  A    between atoms: _133  and  _134
REMARK   60  A    between atoms: _136  and  _138
REMARK   61  A    between atoms: _138  and  _139
REMARK   62  A    between atoms: _141  and  _143
REMARK   63  A    between atoms: _143  and  _144
REMARK   64  A    between atoms: _143  and  _146
REMARK   65  A    between atoms: _146  and  _147
REMARK   66  A    between atoms: _150  and  _152
REMARK   67  A    between atoms: _152  and  _153
REMARK   68  A    between atoms: _155  and  _157
REMARK   69  A    between atoms: _157  and  _158
REMARK   70  A    between atoms: _160  and  _162
REMARK   71  A    between atoms: _162  and  _163
REMARK   72  A    between atoms: _162  and  _165
REMARK   73  A    between atoms: _165  and  _166
REMARK   74  A    between atoms: _172  and  _174
REMARK   75  A    between atoms: _174  and  _175
REMARK   76  A    between atoms: _174  and  _177
REMARK   77  A    between atoms: _177  and  _178
REMARK   78  A    between atoms: _181  and  _183
REMARK   79  A    between atoms: _183  and  _184
REMARK   80  A    between atoms: _183  and  _186
REMARK   81  A    between atoms: _189  and  _191
REMARK   82  A    between atoms: _191  and  _192
REMARK   83  A    between atoms: _191  and  _194
REMARK   84  A    between atoms: _194  and  _195
REMARK   85  A    between atoms: _198  and  _200
REMARK   86  A    between atoms: _200  and  _201
REMARK   87  A    between atoms: _200  and  _203
REMARK   88  A    between atoms: _203  and  _204
REMARK   89  A    between atoms: _208  and  _209
REMARK   90  A    between atoms: _214  and  _216
REMARK   91  A    between atoms: _216  and  _217
REMARK   92  A    between atoms: _216  and  _219
REMARK   93  A    between atoms: _222  and  _224
REMARK   94  A    between atoms: _224  and  _225
REMARK   95  A    between atoms: _224  and  _227
REMARK   96  A    between atoms: _227  and  _228
REMARK   97  A    between atoms: _233  and  _235
REMARK   98  A    between atoms: _235  and  _236
REMARK   99  A    between atoms: _235  and  _238
REMARK  100  A    between atoms: _238  and  _239
REMARK  101  A    between atoms: _242  and  _244
REMARK  102  A    between atoms: _244  and  _245
REMARK  103  A    between atoms: _244  and  _247
REMARK  104  A    between atoms: _247  and  _248
REMARK  105  A    between atoms: _251  and  _253
REMARK  106  A    between atoms: _253  and  _254
REMARK  107  A    between atoms: _256  and  _258
REMARK  108  A    between atoms: _258  and  _259
REMARK  109  A    between atoms: _258  and  _261
REMARK  110  A    between atoms: _261  and  _262
REMARK  111  A    between atoms: _262  and  _263
REMARK  112  A    between atoms: _263  and  _264
REMARK  113  A    between atoms: _273  and  _275
REMARK  114  A    between atoms: _275  and  _276
REMARK  115  A    between atoms: _275  and  _278
REMARK  116  A    between atoms: _278  and  _279
REMARK  117  A    between atoms: _284  and  _286
REMARK  118  A    between atoms: _286  and  _287
REMARK  119  A    between atoms: _286  and  _289
REMARK  120  A    between atoms: _289  and  _290
REMARK  121  A    between atoms: _290  and  _291
REMARK  122  A    between atoms: _291  and  _292
REMARK  123  A    between atoms: _301  and  _303
REMARK  124  A    between atoms: _303  and  _304
REMARK  125  A    between atoms: _303  and  _306
REMARK  126  A    between atoms: _306  and  _307
REMARK  127  A    between atoms: _310  and  _312
REMARK  128  A    between atoms: _312  and  _313
REMARK  129  A    between atoms: _312  and  _315
REMARK  130  A    between atoms: _315  and  _316
REMARK  131  A    between atoms: _319  and  _321
REMARK  132  A    between atoms: _321  and  _322
REMARK  133  A    between atoms: _321  and  _324
REMARK  134  A    between atoms: _324  and  _325
REMARK  135  A    between atoms: _328  and  _330
REMARK  136  A    between atoms: _330  and  _331
REMARK  137  A    between atoms: _330  and  _333
REMARK  138  A    between atoms: _333  and  _334
REMARK  139  A    between atoms: _337  and  _339
REMARK  140  A    between atoms: _339  and  _340
REMARK  141  A    between atoms: _342  and  _344
REMARK  142  A    between atoms: _344  and  _345
REMARK  143  A    between atoms: _348  and  _350
REMARK  144  A    between atoms: _350  and  _351
REMARK  145  A    between atoms: _350  and  _353
REMARK  146  A    between atoms: _353  and  _354
REMARK  147  A    between atoms: _357  and  _359
REMARK  148  A    between atoms: _359  and  _360
REMARK  149  A    between atoms: _359  and  _362
REMARK  150  A    between atoms: _362  and  _363
REMARK  151  A    between atoms: _366  and  _368
REMARK  152  A    between atoms: _368  and  _369
REMARK  153  A    between atoms: _368  and  _371
REMARK  154  A    between atoms: _371  and  _372
REMARK  155  A    between atoms: _375  and  _377
REMARK  156  A    between atoms: _377  and  _378
REMARK  157  A    between atoms: _377  and  _380
REMARK  158  A    between atoms: _383  and  _385
REMARK  159  A    between atoms: _385  and  _386
REMARK  160  A    between atoms: _385  and  _388
REMARK  161  A    between atoms: _388  and  _389
REMARK  162  A    between atoms: _389  and  _390
REMARK  163  A    between atoms: _390  and  _391
REMARK  164  A    between atoms: _391  and  _392
REMARK  165  A    between atoms: _396  and  _398
REMARK  166  A    between atoms: _398  and  _399
REMARK  167  A    between atoms: _398  and  _401
REMARK  168  A    between atoms: _401  and  _402
REMARK  169  A    between atoms: _402  and  _403
REMARK  170  A    between atoms: _405  and  _407
REMARK  171  A    between atoms: _407  and  _408
REMARK  172  A    between atoms: _407  and  _410
REMARK  173  A    between atoms: _410  and  _411
REMARK  174  A    between atoms: _414  and  _416
REMARK  175  A    between atoms: _416  and  _417
REMARK  176  A    between atoms: _419  and  _421
REMARK  177  A    between atoms: _421  and  _422
REMARK  178  A    between atoms: _424  and  _426
REMARK  179  A    between atoms: _426  and  _427
REMARK  180  A    between atoms: _426  and  _429
REMARK  181  A    between atoms: _429  and  _430
REMARK  182  A    between atoms: _433  and  _435
REMARK  183  A    between atoms: _435  and  _436
REMARK  184  A    between atoms: _438  and  _440
REMARK  185  A    between atoms: _440  and  _441
REMARK  186  A    between atoms: _443  and  _445
REMARK  187  A    between atoms: _445  and  _446
REMARK  188  A    between atoms: _445  and  _448
REMARK  189  A    between atoms: _448  and  _449
REMARK  190  A    between atoms: _455  and  _457
REMARK  191  A    between atoms: _457  and  _458
REMARK  192  A    between atoms: _457  and  _460
REMARK  193  A    between atoms: _460  and  _461
REMARK  194  A    between atoms: _464  and  _466
REMARK  195  A    between atoms: _466  and  _467
REMARK  196  A    between atoms: _466  and  _469
REMARK  197  A    between atoms: _469  and  _470
REMARK  198  A    between atoms: _473  and  _475
REMARK  199  A    between atoms: _475  and  _476
REMARK  200  A    between atoms: _475  and  _478
REMARK  201  A    between atoms: _478  and  _479
REMARK  202  A    between atoms: _483  and  _484
REMARK  203  A    between atoms: _489  and  _491
REMARK  204  A    between atoms: _491  and  _492
REMARK  205  A    between atoms: _491  and  _494
REMARK  206  A    between atoms: _497  and  _499
REMARK  207  A    between atoms: _499  and  _500
REMARK  208  A    between atoms: _499  and  _502
REMARK  209  A    between atoms: _502  and  _503
REMARK  210  A    between atoms: _508  and  _510
REMARK  211  A    between atoms: _510  and  _511
REMARK  212  A    between atoms: _510  and  _513
REMARK  213  A    between atoms: _513  and  _514
REMARK  214  A    between atoms: _517  and  _519
REMARK  215  A    between atoms: _519  and  _520
REMARK  216  A    between atoms: _519  and  _522
REMARK  217  A    between atoms: _522  and  _523
REMARK  218  A    between atoms: _526  and  _528
REMARK  219  A    between atoms: _528  and  _529
REMARK  220  A    between atoms: _531  and  _533
REMARK  221  A    between atoms: _533  and  _534
REMARK  222  A    between atoms: _533  and  _536
REMARK  223  A    between atoms: _536  and  _537
REMARK  224  A    between atoms: _537  and  _538
REMARK  225  A    between atoms: _538  and  _539
REMARK  226  A    between atoms: _548  and  _550
REMARK  227  A    between atoms: _550  and  _551
REMARK  228  A    between atoms: _550  and  _553
REMARK  229  A    between atoms: _553  and  _554
REMARK                            x       y       z     vdW  Elec       q    Type
REMARK                         _______ _______ _______ _____ _____    ______ ____
ROOT
ATOM      1  O   HOH     1      20.040  32.219  23.427  0.00  0.00    +0.000 OA
ENDROOT
TORSDOF 0
REMARK  Name = ../refined-set-2016/3mxe/3mxe_pocket.pdb
REMARK  229 active torsions:
REMARK  status: ('A' for Active; 'I' for Inactive)
REMARK    1  A    between atoms: _1  and  _3
REMARK    2  A    between atoms: _3  and  _4
REMARK    3  A    between atoms: _3  and  _6
REMARK    4  A    between atoms: _6  and  _7
REMARK    5  A    between atoms: _7  and  _8
REMARK    6  A    between atoms: _8  and  _9
REMARK    7  A    between atoms: _18  and  _20
REMARK    8  A    between atoms: _20  and  _21
REMARK    9  A    between atoms: _20  and  _23
REMARK   10  A    between atoms: _23  and  _24
REMARK   11  A    between atoms: _27  and  _29
REMARK   12  A    between atoms: _29  and  _30
REMARK   13  A    between atoms: _29  and  _32
REMARK   14  A    between atoms: _32  and  _33
REMARK   15  A    between atoms: _36  and  _38
REMARK   16  A    between atoms: _38  and  _39
REMARK   17  A    between atoms: _38  and  _41
REMARK   18  A    between atoms: _41  and  _42
REMARK   19  A    between atoms: _45  and  _47
REMARK   20  A    between atoms: _47  and  _48
REMARK   21  A    between atoms: _47  and  _50
REMARK   22  A    between atoms: _50  and  _51
REMARK   23  A    between atoms: _54  and  _56
REMARK   24  A    between atoms: _56  and  _57
REMARK   25  A    between atoms: _59  and  _61
REMARK   26  A    between atoms: _61  and  _62
REMARK   27  A    between atoms: _65  and  _67
REMARK   28  A    between atoms: _67  and  _68
REMARK   29  A    between atoms: _67  and  _70
REMARK   30  A    between atoms: _70  and  _71
REMARK   31  A    between atoms: _74  and  _76
REMARK   32  A    between atoms: _76  and  _77
REMARK   33  A    between atoms: _76  and  _79
REMARK   34  A    between atoms: _79  and  _80
REMARK   35  A    between atoms: _83  and  _85
REMARK   36  A    between atoms: _85  and  _86
REMARK   37  A    between atoms: _85  and  _88
REMARK   38  A    between atoms: _88  and  _89
REMARK   39  A    between atoms: _92  and  _94
REMARK   40  A    between atoms: _94  and  _95
REMARK   41  A    between atoms: _94  and  _97
REMARK   42  A    between atoms: _100  and  _102
REMARK   43  A    between atoms: _102  and  _103
REMARK   44  A    between atoms: _102  and  _105
REMARK   45  A    between atoms: _105  and  _106
REMARK   46  A    between atoms: _106  and  _107
REMARK   47  A    between atoms: _107  and  _108
REMARK   48  A    between atoms: _108  and  _109
REMARK   49  A    between atoms: _113  and  _115
REMARK   50  A    between atoms: _115  and  _116
REMARK   51  A    between atoms: _115  and  _118
REMARK   52  A    between atoms: _118  and  _119
REMARK   53  A    between atoms: _119  and  _120
REMARK   54  A    between atoms: _122  and  _124
REMARK   55  A    between atoms: _124  and  _125
REMARK   56  A    between atoms: _124  and  _127
REMARK   57  A    between atoms: _127  and  _128
REMARK   58  A    between atoms: _131  and  _133
REMARK   59  A    between atoms: _133  and  _134
REMARK   60  A    between atoms: _136  and  _138
REMARK   61  A    between atoms: _138  and  _139
REMARK   62  A    between atoms: _141  and  _143
REMARK   63  A    between atoms: _143  and  _144
REMARK   64  A    between atoms: _143  and  _146
REMARK   65  A    between atoms: _146  and  _147
REMARK   66  A    between atoms: _150  and  _152
REMARK   67  A    between atoms: _152  and  _153
REMARK   68  A    between atoms: _155  and  _157
REMARK   69  A    between atoms: _157  and  _158
REMARK   70  A    between atoms: _160  and  _162
REMARK   71  A    between atoms: _162  and  _163
REMARK   72  A    between atoms: _162  and  _165
REMARK   73  A    between atoms: _165  and  _166
REMARK   74  A    between atoms: _172  and  _174
REMARK   75  A    between atoms: _174  and  _175
REMARK   76  A    between atoms: _174  and  _177
REMARK   77  A    between atoms: _177  and  _178
REMARK   78  A    between atoms: _181  and  _183
REMARK   79  A    between atoms: _183  and  _184
REMARK   80  A    between atoms: _183  and  _186
REMARK   81  A    between atoms: _189  and  _191
REMARK   82  A    between atoms: _191  and  _192
REMARK   83  A    between atoms: _191  and  _194
REMARK   84  A    between atoms: _194  and  _195
REMARK   85  A    between atoms: _198  and  _200
REMARK   86  A    between atoms: _200  and  _201
REMARK   87  A    between atoms: _200  and  _203
REMARK   88  A    between atoms: _203  and  _204
REMARK   89  A    between atoms: _208  and  _209
REMARK   90  A    between atoms: _214  and  _216
REMARK   91  A    between atoms: _216  and  _217
REMARK   92  A    between atoms: _216  and  _219
REMARK   93  A    between atoms: _222  and  _224
REMARK   94  A    between atoms: _224  and  _225
REMARK   95  A    between atoms: _224  and  _227
REMARK   96  A    between atoms: _227  and  _228
REMARK   97  A    between atoms: _233  and  _235
REMARK   98  A    between atoms: _235  and  _236
REMARK   99  A    between atoms: _235  and  _238
REMARK  100  A    between atoms: _238  and  _239
REMARK  101  A    between atoms: _242  and  _244
REMARK  102  A    between atoms: _244  and  _245
REMARK  103  A    between atoms: _244  and  _247
REMARK  104  A    between atoms: _247  and  _248
REMARK  105  A    between atoms: _251  and  _253
REMARK  106  A    between atoms: _253  and  _254
REMARK  107  A    between atoms: _256  and  _258
REMARK  108  A    between atoms: _258  and  _259
REMARK  109  A    between atoms: _258  and  _261
REMARK  110  A    between atoms: _261  and  _262
REMARK  111  A    between atoms: _262  and  _263
REMARK  112  A    between atoms: _263  and  _264
REMARK  113  A    between atoms: _273  and  _275
REMARK  114  A    between atoms: _275  and  _276
REMARK  115  A    between atoms: _275  and  _278
REMARK  116  A    between atoms: _278  and  _279
REMARK  117  A    between atoms: _284  and  _286
REMARK  118  A    between atoms: _286  and  _287
REMARK  119  A    between atoms: _286  and  _289
REMARK  120  A    between atoms: _289  and  _290
REMARK  121  A    between atoms: _290  and  _291
REMARK  122  A    between atoms: _291  and  _292
REMARK  123  A    between atoms: _301  and  _303
REMARK  124  A    between atoms: _303  and  _304
REMARK  125  A    between atoms: _303  and  _306
REMARK  126  A    between atoms: _306  and  _307
REMARK  127  A    between atoms: _310  and  _312
REMARK  128  A    between atoms: _312  and  _313
REMARK  129  A    between atoms: _312  and  _315
REMARK  130  A    between atoms: _315  and  _316
REMARK  131  A    between atoms: _319  and  _321
REMARK  132  A    between atoms: _321  and  _322
REMARK  133  A    between atoms: _321  and  _324
REMARK  134  A    between atoms: _324  and  _325
REMARK  135  A    between atoms: _328  and  _330
REMARK  136  A    between atoms: _330  and  _331
REMARK  137  A    between atoms: _330  and  _333
REMARK  138  A    between atoms: _333  and  _334
REMARK  139  A    between atoms: _337  and  _339
REMARK  140  A    between atoms: _339  and  _340
REMARK  141  A    between atoms: _342  and  _344
REMARK  142  A    between atoms: _344  and  _345
REMARK  143  A    between atoms: _348  and  _350
REMARK  144  A    between atoms: _350  and  _351
REMARK  145  A    between atoms: _350  and  _353
REMARK  146  A    between atoms: _353  and  _354
REMARK  147  A    between atoms: _357  and  _359
REMARK  148  A    between atoms: _359  and  _360
REMARK  149  A    between atoms: _359  and  _362
REMARK  150  A    between atoms: _362  and  _363
REMARK  151  A    between atoms: _366  and  _368
REMARK  152  A    between atoms: _368  and  _369
REMARK  153  A    between atoms: _368  and  _371
REMARK  154  A    between atoms: _371  and  _372
REMARK  155  A    between atoms: _375  and  _377
REMARK  156  A    between atoms: _377  and  _378
REMARK  157  A    between atoms: _377  and  _380
REMARK  158  A    between atoms: _383  and  _385
REMARK  159  A    between atoms: _385  and  _386
REMARK  160  A    between atoms: _385  and  _388
REMARK  161  A    between atoms: _388  and  _389
REMARK  162  A    between atoms: _389  and  _390
REMARK  163  A    between atoms: _390  and  _391
REMARK  164  A    between atoms: _391  and  _392
REMARK  165  A    between atoms: _396  and  _398
REMARK  166  A    between atoms: _398  and  _399
REMARK  167  A    between atoms: _398  and  _401
REMARK  168  A    between atoms: _401  and  _402
REMARK  169  A    between atoms: _402  and  _403
REMARK  170  A    between atoms: _405  and  _407
REMARK  171  A    between atoms: _407  and  _408
REMARK  172  A    between atoms: _407  and  _410
REMARK  173  A    between atoms: _410  and  _411
REMARK  174  A    between atoms: _414  and  _416
REMARK  175  A    between atoms: _416  and  _417
REMARK  176  A    between atoms: _419  and  _421
REMARK  177  A    between atoms: _421  and  _422
REMARK  178  A    between atoms: _424  and  _426
REMARK  179  A    between atoms: _426  and  _427
REMARK  180  A    between atoms: _426  and  _429
REMARK  181  A    between atoms: _429  and  _430
REMARK  182  A    between atoms: _433  and  _435
REMARK  183  A    between atoms: _435  and  _436
REMARK  184  A    between atoms: _438  and  _440
REMARK  185  A    between atoms: _440  and  _441
REMARK  186  A    between atoms: _443  and  _445
REMARK  187  A    between atoms: _445  and  _446
REMARK  188  A    between atoms: _445  and  _448
REMARK  189  A    between atoms: _448  and  _449
REMARK  190  A    between atoms: _455  and  _457
REMARK  191  A    between atoms: _457  and  _458
REMARK  192  A    between atoms: _457  and  _460
REMARK  193  A    between atoms: _460  and  _461
REMARK  194  A    between atoms: _464  and  _466
REMARK  195  A    between atoms: _466  and  _467
REMARK  196  A    between atoms: _466  and  _469
REMARK  197  A    between atoms: _469  and  _470
REMARK  198  A    between atoms: _473  and  _475
REMARK  199  A    between atoms: _475  and  _476
REMARK  200  A    between atoms: _475  and  _478
REMARK  201  A    between atoms: _478  and  _479
REMARK  202  A    between atoms: _483  and  _484
REMARK  203  A    between atoms: _489  and  _491
REMARK  204  A    between atoms: _491  and  _492
REMARK  205  A    between atoms: _491  and  _494
REMARK  206  A    between atoms: _497  and  _499
REMARK  207  A    between atoms: _499  and  _500
REMARK  208  A    between atoms: _499  and  _502
REMARK  209  A    between atoms: _502  and  _503
REMARK  210  A    between atoms: _508  and  _510
REMARK  211  A    between atoms: _510  and  _511
REMARK  212  A    between atoms: _510  and  _513
REMARK  213  A    between atoms: _513  and  _514
REMARK  214  A    between atoms: _517  and  _519
REMARK  215  A    between atoms: _519  and  _520
REMARK  216  A    between atoms: _519  and  _522
REMARK  217  A    between atoms: _522  and  _523
REMARK  218  A    between atoms: _526  and  _528
REMARK  219  A    between atoms: _528  and  _529
REMARK  220  A    between atoms: _531  and  _533
REMARK  221  A    between atoms: _533  and  _534
REMARK  222  A    between atoms: _533  and  _536
REMARK  223  A    between atoms: _536  and  _537
REMARK  224  A    between atoms: _537  and  _538
REMARK  225  A    between atoms: _538  and  _539
REMARK  226  A    between atoms: _548  and  _550
REMARK  227  A    between atoms: _550  and  _551
REMARK  228  A    between atoms: _550  and  _553
REMARK  229  A    between atoms: _553  and  _554
REMARK                            x       y       z     vdW  Elec       q    Type
REMARK                         _______ _______ _______ _____ _____    ______ ____
ROOT
ATOM      1  O   HOH     1      17.579  40.448  16.102  0.00  0.00    +0.000 OA
ENDROOT
TORSDOF 0
REMARK  Name = ../refined-set-2016/3mxe/3mxe_pocket.pdb
REMARK  229 active torsions:
REMARK  status: ('A' for Active; 'I' for Inactive)
REMARK    1  A    between atoms: _1  and  _3
REMARK    2  A    between atoms: _3  and  _4
REMARK    3  A    between atoms: _3  and  _6
REMARK    4  A    between atoms: _6  and  _7
REMARK    5  A    between atoms: _7  and  _8
REMARK    6  A    between atoms: _8  and  _9
REMARK    7  A    between atoms: _18  and  _20
REMARK    8  A    between atoms: _20  and  _21
REMARK    9  A    between atoms: _20  and  _23
REMARK   10  A    between atoms: _23  and  _24
REMARK   11  A    between atoms: _27  and  _29
REMARK   12  A    between atoms: _29  and  _30
REMARK   13  A    between atoms: _29  and  _32
REMARK   14  A    between atoms: _32  and  _33
REMARK   15  A    between atoms: _36  and  _38
REMARK   16  A    between atoms: _38  and  _39
REMARK   17  A    between atoms: _38  and  _41
REMARK   18  A    between atoms: _41  and  _42
REMARK   19  A    between atoms: _45  and  _47
REMARK   20  A    between atoms: _47  and  _48
REMARK   21  A    between atoms: _47  and  _50
REMARK   22  A    between atoms: _50  and  _51
REMARK   23  A    between atoms: _54  and  _56
REMARK   24  A    between atoms: _56  and  _57
REMARK   25  A    between atoms: _59  and  _61
REMARK   26  A    between atoms: _61  and  _62
REMARK   27  A    between atoms: _65  and  _67
REMARK   28  A    between atoms: _67  and  _68
REMARK   29  A    between atoms: _67  and  _70
REMARK   30  A    between atoms: _70  and  _71
REMARK   31  A    between atoms: _74  and  _76
REMARK   32  A    between atoms: _76  and  _77
REMARK   33  A    between atoms: _76  and  _79
REMARK   34  A    between atoms: _79  and  _80
REMARK   35  A    between atoms: _83  and  _85
REMARK   36  A    between atoms: _85  and  _86
REMARK   37  A    between atoms: _85  and  _88
REMARK   38  A    between atoms: _88  and  _89
REMARK   39  A    between atoms: _92  and  _94
REMARK   40  A    between atoms: _94  and  _95
REMARK   41  A    between atoms: _94  and  _97
REMARK   42  A    between atoms: _100  and  _102
REMARK   43  A    between atoms: _102  and  _103
REMARK   44  A    between atoms: _102  and  _105
REMARK   45  A    between atoms: _105  and  _106
REMARK   46  A    between atoms: _106  and  _107
REMARK   47  A    between atoms: _107  and  _108
REMARK   48  A    between atoms: _108  and  _109
REMARK   49  A    between atoms: _113  and  _115
REMARK   50  A    between atoms: _115  and  _116
REMARK   51  A    between atoms: _115  and  _118
REMARK   52  A    between atoms: _118  and  _119
REMARK   53  A    between atoms: _119  and  _120
REMARK   54  A    between atoms: _122  and  _124
REMARK   55  A    between atoms: _124  and  _125
REMARK   56  A    between atoms: _124  and  _127
REMARK   57  A    between atoms: _127  and  _128
REMARK   58  A    between atoms: _131  and  _133
REMARK   59  A    between atoms: _133  and  _134
REMARK   60  A    between atoms: _136  and  _138
REMARK   61  A    between atoms: _138  and  _139
REMARK   62  A    between atoms: _141  and  _143
REMARK   63  A    between atoms: _143  and  _144
REMARK   64  A    between atoms: _143  and  _146
REMARK   65  A    between atoms: _146  and  _147
REMARK   66  A    between atoms: _150  and  _152
REMARK   67  A    between atoms: _152  and  _153
REMARK   68  A    between atoms: _155  and  _157
REMARK   69  A    between atoms: _157  and  _158
REMARK   70  A    between atoms: _160  and  _162
REMARK   71  A    between atoms: _162  and  _163
REMARK   72  A    between atoms: _162  and  _165
REMARK   73  A    between atoms: _165  and  _166
REMARK   74  A    between atoms: _172  and  _174
REMARK   75  A    between atoms: _174  and  _175
REMARK   76  A    between atoms: _174  and  _177
REMARK   77  A    between atoms: _177  and  _178
REMARK   78  A    between atoms: _181  and  _183
REMARK   79  A    between atoms: _183  and  _184
REMARK   80  A    between atoms: _183  and  _186
REMARK   81  A    between atoms: _189  and  _191
REMARK   82  A    between atoms: _191  and  _192
REMARK   83  A    between atoms: _191  and  _194
REMARK   84  A    between atoms: _194  and  _195
REMARK   85  A    between atoms: _198  and  _200
REMARK   86  A    between atoms: _200  and  _201
REMARK   87  A    between atoms: _200  and  _203
REMARK   88  A    between atoms: _203  and  _204
REMARK   89  A    between atoms: _208  and  _209
REMARK   90  A    between atoms: _214  and  _216
REMARK   91  A    between atoms: _216  and  _217
REMARK   92  A    between atoms: _216  and  _219
REMARK   93  A    between atoms: _222  and  _224
REMARK   94  A    between atoms: _224  and  _225
REMARK   95  A    between atoms: _224  and  _227
REMARK   96  A    between atoms: _227  and  _228
REMARK   97  A    between atoms: _233  and  _235
REMARK   98  A    between atoms: _235  and  _236
REMARK   99  A    between atoms: _235  and  _238
REMARK  100  A    between atoms: _238  and  _239
REMARK  101  A    between atoms: _242  and  _244
REMARK  102  A    between atoms: _244  and  _245
REMARK  103  A    between atoms: _244  and  _247
REMARK  104  A    between atoms: _247  and  _248
REMARK  105  A    between atoms: _251  and  _253
REMARK  106  A    between atoms: _253  and  _254
REMARK  107  A    between atoms: _256  and  _258
REMARK  108  A    between atoms: _258  and  _259
REMARK  109  A    between atoms: _258  and  _261
REMARK  110  A    between atoms: _261  and  _262
REMARK  111  A    between atoms: _262  and  _263
REMARK  112  A    between atoms: _263  and  _264
REMARK  113  A    between atoms: _273  and  _275
REMARK  114  A    between atoms: _275  and  _276
REMARK  115  A    between atoms: _275  and  _278
REMARK  116  A    between atoms: _278  and  _279
REMARK  117  A    between atoms: _284  and  _286
REMARK  118  A    between atoms: _286  and  _287
REMARK  119  A    between atoms: _286  and  _289
REMARK  120  A    between atoms: _289  and  _290
REMARK  121  A    between atoms: _290  and  _291
REMARK  122  A    between atoms: _291  and  _292
REMARK  123  A    between atoms: _301  and  _303
REMARK  124  A    between atoms: _303  and  _304
REMARK  125  A    between atoms: _303  and  _306
REMARK  126  A    between atoms: _306  and  _307
REMARK  127  A    between atoms: _310  and  _312
REMARK  128  A    between atoms: _312  and  _313
REMARK  129  A    between atoms: _312  and  _315
REMARK  130  A    between atoms: _315  and  _316
REMARK  131  A    between atoms: _319  and  _321
REMARK  132  A    between atoms: _321  and  _322
REMARK  133  A    between atoms: _321  and  _324
REMARK  134  A    between atoms: _324  and  _325
REMARK  135  A    between atoms: _328  and  _330
REMARK  136  A    between atoms: _330  and  _331
REMARK  137  A    between atoms: _330  and  _333
REMARK  138  A    between atoms: _333  and  _334
REMARK  139  A    between atoms: _337  and  _339
REMARK  140  A    between atoms: _339  and  _340
REMARK  141  A    between atoms: _342  and  _344
REMARK  142  A    between atoms: _344  and  _345
REMARK  143  A    between atoms: _348  and  _350
REMARK  144  A    between atoms: _350  and  _351
REMARK  145  A    between atoms: _350  and  _353
REMARK  146  A    between atoms: _353  and  _354
REMARK  147  A    between atoms: _357  and  _359
REMARK  148  A    between atoms: _359  and  _360
REMARK  149  A    between atoms: _359  and  _362
REMARK  150  A    between atoms: _362  and  _363
REMARK  151  A    between atoms: _366  and  _368
REMARK  152  A    between atoms: _368  and  _369
REMARK  153  A    between atoms: _368  and  _371
REMARK  154  A    between atoms: _371  and  _372
REMARK  155  A    between atoms: _375  and  _377
REMARK  156  A    between atoms: _377  and  _378
REMARK  157  A    between atoms: _377  and  _380
REMARK  158  A    between atoms: _383  and  _385
REMARK  159  A    between atoms: _385  and  _386
REMARK  160  A    between atoms: _385  and  _388
REMARK  161  A    between atoms: _388  and  _389
REMARK  162  A    between atoms: _389  and  _390
REMARK  163  A    between atoms: _390  and  _391
REMARK  164  A    between atoms: _391  and  _392
REMARK  165  A    between atoms: _396  and  _398
REMARK  166  A    between atoms: _398  and  _399
REMARK  167  A    between atoms: _398  and  _401
REMARK  168  A    between atoms: _401  and  _402
REMARK  169  A    between atoms: _402  and  _403
REMARK  170  A    between atoms: _405  and  _407
REMARK  171  A    between atoms: _407  and  _408
REMARK  172  A    between atoms: _407  and  _410
REMARK  173  A    between atoms: _410  and  _411
REMARK  174  A    between atoms: _414  and  _416
REMARK  175  A    between atoms: _416  and  _417
REMARK  176  A    between atoms: _419  and  _421
REMARK  177  A    between atoms: _421  and  _422
REMARK  178  A    between atoms: _424  and  _426
REMARK  179  A    between atoms: _426  and  _427
REMARK  180  A    between atoms: _426  and  _429
REMARK  181  A    between atoms: _429  and  _430
REMARK  182  A    between atoms: _433  and  _435
REMARK  183  A    between atoms: _435  and  _436
REMARK  184  A    between atoms: _438  and  _440
REMARK  185  A    between atoms: _440  and  _441
REMARK  186  A    between atoms: _443  and  _445
REMARK  187  A    between atoms: _445  and  _446
REMARK  188  A    between atoms: _445  and  _448
REMARK  189  A    between atoms: _448  and  _449
REMARK  190  A    between atoms: _455  and  _457
REMARK  191  A    between atoms: _457  and  _458
REMARK  192  A    between atoms: _457  and  _460
REMARK  193  A    between atoms: _460  and  _461
REMARK  194  A    between atoms: _464  and  _466
REMARK  195  A    between atoms: _466  and  _467
REMARK  196  A    between atoms: _466  and  _469
REMARK  197  A    between atoms: _469  and  _470
REMARK  198  A    between atoms: _473  and  _475
REMARK  199  A    between atoms: _475  and  _476
REMARK  200  A    between atoms: _475  and  _478
REMARK  201  A    between atoms: _478  and  _479
REMARK  202  A    between atoms: _483  and  _484
REMARK  203  A    between atoms: _489  and  _491
REMARK  204  A    between atoms: _491  and  _492
REMARK  205  A    between atoms: _491  and  _494
REMARK  206  A    between atoms: _497  and  _499
REMARK  207  A    between atoms: _499  and  _500
REMARK  208  A    between atoms: _499  and  _502
REMARK  209  A    between atoms: _502  and  _503
REMARK  210  A    between atoms: _508  and  _510
REMARK  211  A    between atoms: _510  and  _511
REMARK  212  A    between atoms: _510  and  _513
REMARK  213  A    between atoms: _513  and  _514
REMARK  214  A    between atoms: _517  and  _519
REMARK  215  A    between atoms: _519  and  _520
REMARK  216  A    between atoms: _519  and  _522
REMARK  217  A    between atoms: _522  and  _523
REMARK  218  A    between atoms: _526  and  _528
REMARK  219  A    between atoms: _528  and  _529
REMARK  220  A    between atoms: _531  and  _533
REMARK  221  A    between atoms: _533  and  _534
REMARK  222  A    between atoms: _533  and  _536
REMARK  223  A    between atoms: _536  and  _537
REMARK  224  A    between atoms: _537  and  _538
REMARK  225  A    between atoms: _538  and  _539
REMARK  226  A    between atoms: _548  and  _550
REMARK  227  A    between atoms: _550  and  _551
REMARK  228  A    between atoms: _550  and  _553
REMARK  229  A    between atoms: _553  and  _554
REMARK                            x       y       z     vdW  Elec       q    Type
REMARK                         _______ _______ _______ _____ _____    ______ ____
ROOT
ATOM      1  O   HOH     1       9.048  34.594  21.174  0.00  0.00    +0.000 OA
ENDROOT
TORSDOF 0
REMARK  Name = ../refined-set-2016/3mxe/3mxe_pocket.pdb
REMARK  229 active torsions:
REMARK  status: ('A' for Active; 'I' for Inactive)
REMARK    1  A    between atoms: _1  and  _3
REMARK    2  A    between atoms: _3  and  _4
REMARK    3  A    between atoms: _3  and  _6
REMARK    4  A    between atoms: _6  and  _7
REMARK    5  A    between atoms: _7  and  _8
REMARK    6  A    between atoms: _8  and  _9
REMARK    7  A    between atoms: _18  and  _20
REMARK    8  A    between atoms: _20  and  _21
REMARK    9  A    between atoms: _20  and  _23
REMARK   10  A    between atoms: _23  and  _24
REMARK   11  A    between atoms: _27  and  _29
REMARK   12  A    between atoms: _29  and  _30
REMARK   13  A    between atoms: _29  and  _32
REMARK   14  A    between atoms: _32  and  _33
REMARK   15  A    between atoms: _36  and  _38
REMARK   16  A    between atoms: _38  and  _39
REMARK   17  A    between atoms: _38  and  _41
REMARK   18  A    between atoms: _41  and  _42
REMARK   19  A    between atoms: _45  and  _47
REMARK   20  A    between atoms: _47  and  _48
REMARK   21  A    between atoms: _47  and  _50
REMARK   22  A    between atoms: _50  and  _51
REMARK   23  A    between atoms: _54  and  _56
REMARK   24  A    between atoms: _56  and  _57
REMARK   25  A    between atoms: _59  and  _61
REMARK   26  A    between atoms: _61  and  _62
REMARK   27  A    between atoms: _65  and  _67
REMARK   28  A    between atoms: _67  and  _68
REMARK   29  A    between atoms: _67  and  _70
REMARK   30  A    between atoms: _70  and  _71
REMARK   31  A    between atoms: _74  and  _76
REMARK   32  A    between atoms: _76  and  _77
REMARK   33  A    between atoms: _76  and  _79
REMARK   34  A    between atoms: _79  and  _80
REMARK   35  A    between atoms: _83  and  _85
REMARK   36  A    between atoms: _85  and  _86
REMARK   37  A    between atoms: _85  and  _88
REMARK   38  A    between atoms: _88  and  _89
REMARK   39  A    between atoms: _92  and  _94
REMARK   40  A    between atoms: _94  and  _95
REMARK   41  A    between atoms: _94  and  _97
REMARK   42  A    between atoms: _100  and  _102
REMARK   43  A    between atoms: _102  and  _103
REMARK   44  A    between atoms: _102  and  _105
REMARK   45  A    between atoms: _105  and  _106
REMARK   46  A    between atoms: _106  and  _107
REMARK   47  A    between atoms: _107  and  _108
REMARK   48  A    between atoms: _108  and  _109
REMARK   49  A    between atoms: _113  and  _115
REMARK   50  A    between atoms: _115  and  _116
REMARK   51  A    between atoms: _115  and  _118
REMARK   52  A    between atoms: _118  and  _119
REMARK   53  A    between atoms: _119  and  _120
REMARK   54  A    between atoms: _122  and  _124
REMARK   55  A    between atoms: _124  and  _125
REMARK   56  A    between atoms: _124  and  _127
REMARK   57  A    between atoms: _127  and  _128
REMARK   58  A    between atoms: _131  and  _133
REMARK   59  A    between atoms: _133  and  _134
REMARK   60  A    between atoms: _136  and  _138
REMARK   61  A    between atoms: _138  and  _139
REMARK   62  A    between atoms: _141  and  _143
REMARK   63  A    between atoms: _143  and  _144
REMARK   64  A    between atoms: _143  and  _146
REMARK   65  A    between atoms: _146  and  _147
REMARK   66  A    between atoms: _150  and  _152
REMARK   67  A    between atoms: _152  and  _153
REMARK   68  A    between atoms: _155  and  _157
REMARK   69  A    between atoms: _157  and  _158
REMARK   70  A    between atoms: _160  and  _162
REMARK   71  A    between atoms: _162  and  _163
REMARK   72  A    between atoms: _162  and  _165
REMARK   73  A    between atoms: _165  and  _166
REMARK   74  A    between atoms: _172  and  _174
REMARK   75  A    between atoms: _174  and  _175
REMARK   76  A    between atoms: _174  and  _177
REMARK   77  A    between atoms: _177  and  _178
REMARK   78  A    between atoms: _181  and  _183
REMARK   79  A    between atoms: _183  and  _184
REMARK   80  A    between atoms: _183  and  _186
REMARK   81  A    between atoms: _189  and  _191
REMARK   82  A    between atoms: _191  and  _192
REMARK   83  A    between atoms: _191  and  _194
REMARK   84  A    between atoms: _194  and  _195
REMARK   85  A    between atoms: _198  and  _200
REMARK   86  A    between atoms: _200  and  _201
REMARK   87  A    between atoms: _200  and  _203
REMARK   88  A    between atoms: _203  and  _204
REMARK   89  A    between atoms: _208  and  _209
REMARK   90  A    between atoms: _214  and  _216
REMARK   91  A    between atoms: _216  and  _217
REMARK   92  A    between atoms: _216  and  _219
REMARK   93  A    between atoms: _222  and  _224
REMARK   94  A    between atoms: _224  and  _225
REMARK   95  A    between atoms: _224  and  _227
REMARK   96  A    between atoms: _227  and  _228
REMARK   97  A    between atoms: _233  and  _235
REMARK   98  A    between atoms: _235  and  _236
REMARK   99  A    between atoms: _235  and  _238
REMARK  100  A    between atoms: _238  and  _239
REMARK  101  A    between atoms: _242  and  _244
REMARK  102  A    between atoms: _244  and  _245
REMARK  103  A    between atoms: _244  and  _247
REMARK  104  A    between atoms: _247  and  _248
REMARK  105  A    between atoms: _251  and  _253
REMARK  106  A    between atoms: _253  and  _254
REMARK  107  A    between atoms: _256  and  _258
REMARK  108  A    between atoms: _258  and  _259
REMARK  109  A    between atoms: _258  and  _261
REMARK  110  A    between atoms: _261  and  _262
REMARK  111  A    between atoms: _262  and  _263
REMARK  112  A    between atoms: _263  and  _264
REMARK  113  A    between atoms: _273  and  _275
REMARK  114  A    between atoms: _275  and  _276
REMARK  115  A    between atoms: _275  and  _278
REMARK  116  A    between atoms: _278  and  _279
REMARK  117  A    between atoms: _284  and  _286
REMARK  118  A    between atoms: _286  and  _287
REMARK  119  A    between atoms: _286  and  _289
REMARK  120  A    between atoms: _289  and  _290
REMARK  121  A    between atoms: _290  and  _291
REMARK  122  A    between atoms: _291  and  _292
REMARK  123  A    between atoms: _301  and  _303
REMARK  124  A    between atoms: _303  and  _304
REMARK  125  A    between atoms: _303  and  _306
REMARK  126  A    between atoms: _306  and  _307
REMARK  127  A    between atoms: _310  and  _312
REMARK  128  A    between atoms: _312  and  _313
REMARK  129  A    between atoms: _312  and  _315
REMARK  130  A    between atoms: _315  and  _316
REMARK  131  A    between atoms: _319  and  _321
REMARK  132  A    between atoms: _321  and  _322
REMARK  133  A    between atoms: _321  and  _324
REMARK  134  A    between atoms: _324  and  _325
REMARK  135  A    between atoms: _328  and  _330
REMARK  136  A    between atoms: _330  and  _331
REMARK  137  A    between atoms: _330  and  _333
REMARK  138  A    between atoms: _333  and  _334
REMARK  139  A    between atoms: _337  and  _339
REMARK  140  A    between atoms: _339  and  _340
REMARK  141  A    between atoms: _342  and  _344
REMARK  142  A    between atoms: _344  and  _345
REMARK  143  A    between atoms: _348  and  _350
REMARK  144  A    between atoms: _350  and  _351
REMARK  145  A    between atoms: _350  and  _353
REMARK  146  A    between atoms: _353  and  _354
REMARK  147  A    between atoms: _357  and  _359
REMARK  148  A    between atoms: _359  and  _360
REMARK  149  A    between atoms: _359  and  _362
REMARK  150  A    between atoms: _362  and  _363
REMARK  151  A    between atoms: _366  and  _368
REMARK  152  A    between atoms: _368  and  _369
REMARK  153  A    between atoms: _368  and  _371
REMARK  154  A    between atoms: _371  and  _372
REMARK  155  A    between atoms: _375  and  _377
REMARK  156  A    between atoms: _377  and  _378
REMARK  157  A    between atoms: _377  and  _380
REMARK  158  A    between atoms: _383  and  _385
REMARK  159  A    between atoms: _385  and  _386
REMARK  160  A    between atoms: _385  and  _388
REMARK  161  A    between atoms: _388  and  _389
REMARK  162  A    between atoms: _389  and  _390
REMARK  163  A    between atoms: _390  and  _391
REMARK  164  A    between atoms: _391  and  _392
REMARK  165  A    between atoms: _396  and  _398
REMARK  166  A    between atoms: _398  and  _399
REMARK  167  A    between atoms: _398  and  _401
REMARK  168  A    between atoms: _401  and  _402
REMARK  169  A    between atoms: _402  and  _403
REMARK  170  A    between atoms: _405  and  _407
REMARK  171  A    between atoms: _407  and  _408
REMARK  172  A    between atoms: _407  and  _410
REMARK  173  A    between atoms: _410  and  _411
REMARK  174  A    between atoms: _414  and  _416
REMARK  175  A    between atoms: _416  and  _417
REMARK  176  A    between atoms: _419  and  _421
REMARK  177  A    between atoms: _421  and  _422
REMARK  178  A    between atoms: _424  and  _426
REMARK  179  A    between atoms: _426  and  _427
REMARK  180  A    between atoms: _426  and  _429
REMARK  181  A    between atoms: _429  and  _430
REMARK  182  A    between atoms: _433  and  _435
REMARK  183  A    between atoms: _435  and  _436
REMARK  184  A    between atoms: _438  and  _440
REMARK  185  A    between atoms: _440  and  _441
REMARK  186  A    between atoms: _443  and  _445
REMARK  187  A    between atoms: _445  and  _446
REMARK  188  A    between atoms: _445  and  _448
REMARK  189  A    between atoms: _448  and  _449
REMARK  190  A    between atoms: _455  and  _457
REMARK  191  A    between atoms: _457  and  _458
REMARK  192  A    between atoms: _457  and  _460
REMARK  193  A    between atoms: _460  and  _461
REMARK  194  A    between atoms: _464  and  _466
REMARK  195  A    between atoms: _466  and  _467
REMARK  196  A    between atoms: _466  and  _469
REMARK  197  A    between atoms: _469  and  _470
REMARK  198  A    between atoms: _473  and  _475
REMARK  199  A    between atoms: _475  and  _476
REMARK  200  A    between atoms: _475  and  _478
REMARK  201  A    between atoms: _478  and  _479
REMARK  202  A    between atoms: _483  and  _484
REMARK  203  A    between atoms: _489  and  _491
REMARK  204  A    between atoms: _491  and  _492
REMARK  205  A    between atoms: _491  and  _494
REMARK  206  A    between atoms: _497  and  _499
REMARK  207  A    between atoms: _499  and  _500
REMARK  208  A    between atoms: _499  and  _502
REMARK  209  A    between atoms: _502  and  _503
REMARK  210  A    between atoms: _508  and  _510
REMARK  211  A    between atoms: _510  and  _511
REMARK  212  A    between atoms: _510  and  _513
REMARK  213  A    between atoms: _513  and  _514
REMARK  214  A    between atoms: _517  and  _519
REMARK  215  A    between atoms: _519  and  _520
REMARK  216  A    between atoms: _519  and  _522
REMARK  217  A    between atoms: _522  and  _523
REMARK  218  A    between atoms: _526  and  _528
REMARK  219  A    between atoms: _528  and  _529
REMARK  220  A    between atoms: _531  and  _533
REMARK  221  A    between atoms: _533  and  _534
REMARK  222  A    between atoms: _533  and  _536
REMARK  223  A    between atoms: _536  and  _537
REMARK  224  A    between atoms: _537  and  _538
REMARK  225  A    between atoms: _538  and  _539
REMARK  226  A    between atoms: _548  and  _550
REMARK  227  A    between atoms: _550  and  _551
REMARK  228  A    between atoms: _550  and  _553
REMARK  229  A    between atoms: _553  and  _554
REMARK                            x       y       z     vdW  Elec       q    Type
REMARK                         _______ _______ _______ _____ _____    ______ ____
ROOT
ATOM      1  O   HOH     1      18.666  34.345  19.310  0.00  0.00    +0.000 OA
ENDROOT
TORSDOF 0
REMARK  Name = ../refined-set-2016/3mxe/3mxe_pocket.pdb
REMARK  229 active torsions:
REMARK  status: ('A' for Active; 'I' for Inactive)
REMARK    1  A    between atoms: _1  and  _3
REMARK    2  A    between atoms: _3  and  _4
REMARK    3  A    between atoms: _3  and  _6
REMARK    4  A    between atoms: _6  and  _7
REMARK    5  A    between atoms: _7  and  _8
REMARK    6  A    between atoms: _8  and  _9
REMARK    7  A    between atoms: _18  and  _20
REMARK    8  A    between atoms: _20  and  _21
REMARK    9  A    between atoms: _20  and  _23
REMARK   10  A    between atoms: _23  and  _24
REMARK   11  A    between atoms: _27  and  _29
REMARK   12  A    between atoms: _29  and  _30
REMARK   13  A    between atoms: _29  and  _32
REMARK   14  A    between atoms: _32  and  _33
REMARK   15  A    between atoms: _36  and  _38
REMARK   16  A    between atoms: _38  and  _39
REMARK   17  A    between atoms: _38  and  _41
REMARK   18  A    between atoms: _41  and  _42
REMARK   19  A    between atoms: _45  and  _47
REMARK   20  A    between atoms: _47  and  _48
REMARK   21  A    between atoms: _47  and  _50
REMARK   22  A    between atoms: _50  and  _51
REMARK   23  A    between atoms: _54  and  _56
REMARK   24  A    between atoms: _56  and  _57
REMARK   25  A    between atoms: _59  and  _61
REMARK   26  A    between atoms: _61  and  _62
REMARK   27  A    between atoms: _65  and  _67
REMARK   28  A    between atoms: _67  and  _68
REMARK   29  A    between atoms: _67  and  _70
REMARK   30  A    between atoms: _70  and  _71
REMARK   31  A    between atoms: _74  and  _76
REMARK   32  A    between atoms: _76  and  _77
REMARK   33  A    between atoms: _76  and  _79
REMARK   34  A    between atoms: _79  and  _80
REMARK   35  A    between atoms: _83  and  _85
REMARK   36  A    between atoms: _85  and  _86
REMARK   37  A    between atoms: _85  and  _88
REMARK   38  A    between atoms: _88  and  _89
REMARK   39  A    between atoms: _92  and  _94
REMARK   40  A    between atoms: _94  and  _95
REMARK   41  A    between atoms: _94  and  _97
REMARK   42  A    between atoms: _100  and  _102
REMARK   43  A    between atoms: _102  and  _103
REMARK   44  A    between atoms: _102  and  _105
REMARK   45  A    between atoms: _105  and  _106
REMARK   46  A    between atoms: _106  and  _107
REMARK   47  A    between atoms: _107  and  _108
REMARK   48  A    between atoms: _108  and  _109
REMARK   49  A    between atoms: _113  and  _115
REMARK   50  A    between atoms: _115  and  _116
REMARK   51  A    between atoms: _115  and  _118
REMARK   52  A    between atoms: _118  and  _119
REMARK   53  A    between atoms: _119  and  _120
REMARK   54  A    between atoms: _122  and  _124
REMARK   55  A    between atoms: _124  and  _125
REMARK   56  A    between atoms: _124  and  _127
REMARK   57  A    between atoms: _127  and  _128
REMARK   58  A    between atoms: _131  and  _133
REMARK   59  A    between atoms: _133  and  _134
REMARK   60  A    between atoms: _136  and  _138
REMARK   61  A    between atoms: _138  and  _139
REMARK   62  A    between atoms: _141  and  _143
REMARK   63  A    between atoms: _143  and  _144
REMARK   64  A    between atoms: _143  and  _146
REMARK   65  A    between atoms: _146  and  _147
REMARK   66  A    between atoms: _150  and  _152
REMARK   67  A    between atoms: _152  and  _153
REMARK   68  A    between atoms: _155  and  _157
REMARK   69  A    between atoms: _157  and  _158
REMARK   70  A    between atoms: _160  and  _162
REMARK   71  A    between atoms: _162  and  _163
REMARK   72  A    between atoms: _162  and  _165
REMARK   73  A    between atoms: _165  and  _166
REMARK   74  A    between atoms: _172  and  _174
REMARK   75  A    between atoms: _174  and  _175
REMARK   76  A    between atoms: _174  and  _177
REMARK   77  A    between atoms: _177  and  _178
REMARK   78  A    between atoms: _181  and  _183
REMARK   79  A    between atoms: _183  and  _184
REMARK   80  A    between atoms: _183  and  _186
REMARK   81  A    between atoms: _189  and  _191
REMARK   82  A    between atoms: _191  and  _192
REMARK   83  A    between atoms: _191  and  _194
REMARK   84  A    between atoms: _194  and  _195
REMARK   85  A    between atoms: _198  and  _200
REMARK   86  A    between atoms: _200  and  _201
REMARK   87  A    between atoms: _200  and  _203
REMARK   88  A    between atoms: _203  and  _204
REMARK   89  A    between atoms: _208  and  _209
REMARK   90  A    between atoms: _214  and  _216
REMARK   91  A    between atoms: _216  and  _217
REMARK   92  A    between atoms: _216  and  _219
REMARK   93  A    between atoms: _222  and  _224
REMARK   94  A    between atoms: _224  and  _225
REMARK   95  A    between atoms: _224  and  _227
REMARK   96  A    between atoms: _227  and  _228
REMARK   97  A    between atoms: _233  and  _235
REMARK   98  A    between atoms: _235  and  _236
REMARK   99  A    between atoms: _235  and  _238
REMARK  100  A    between atoms: _238  and  _239
REMARK  101  A    between atoms: _242  and  _244
REMARK  102  A    between atoms: _244  and  _245
REMARK  103  A    between atoms: _244  and  _247
REMARK  104  A    between atoms: _247  and  _248
REMARK  105  A    between atoms: _251  and  _253
REMARK  106  A    between atoms: _253  and  _254
REMARK  107  A    between atoms: _256  and  _258
REMARK  108  A    between atoms: _258  and  _259
REMARK  109  A    between atoms: _258  and  _261
REMARK  110  A    between atoms: _261  and  _262
REMARK  111  A    between atoms: _262  and  _263
REMARK  112  A    between atoms: _263  and  _264
REMARK  113  A    between atoms: _273  and  _275
REMARK  114  A    between atoms: _275  and  _276
REMARK  115  A    between atoms: _275  and  _278
REMARK  116  A    between atoms: _278  and  _279
REMARK  117  A    between atoms: _284  and  _286
REMARK  118  A    between atoms: _286  and  _287
REMARK  119  A    between atoms: _286  and  _289
REMARK  120  A    between atoms: _289  and  _290
REMARK  121  A    between atoms: _290  and  _291
REMARK  122  A    between atoms: _291  and  _292
REMARK  123  A    between atoms: _301  and  _303
REMARK  124  A    between atoms: _303  and  _304
REMARK  125  A    between atoms: _303  and  _306
REMARK  126  A    between atoms: _306  and  _307
REMARK  127  A    between atoms: _310  and  _312
REMARK  128  A    between atoms: _312  and  _313
REMARK  129  A    between atoms: _312  and  _315
REMARK  130  A    between atoms: _315  and  _316
REMARK  131  A    between atoms: _319  and  _321
REMARK  132  A    between atoms: _321  and  _322
REMARK  133  A    between atoms: _321  and  _324
REMARK  134  A    between atoms: _324  and  _325
REMARK  135  A    between atoms: _328  and  _330
REMARK  136  A    between atoms: _330  and  _331
REMARK  137  A    between atoms: _330  and  _333
REMARK  138  A    between atoms: _333  and  _334
REMARK  139  A    between atoms: _337  and  _339
REMARK  140  A    between atoms: _339  and  _340
REMARK  141  A    between atoms: _342  and  _344
REMARK  142  A    between atoms: _344  and  _345
REMARK  143  A    between atoms: _348  and  _350
REMARK  144  A    between atoms: _350  and  _351
REMARK  145  A    between atoms: _350  and  _353
REMARK  146  A    between atoms: _353  and  _354
REMARK  147  A    between atoms: _357  and  _359
REMARK  148  A    between atoms: _359  and  _360
REMARK  149  A    between atoms: _359  and  _362
REMARK  150  A    between atoms: _362  and  _363
REMARK  151  A    between atoms: _366  and  _368
REMARK  152  A    between atoms: _368  and  _369
REMARK  153  A    between atoms: _368  and  _371
REMARK  154  A    between atoms: _371  and  _372
REMARK  155  A    between atoms: _375  and  _377
REMARK  156  A    between atoms: _377  and  _378
REMARK  157  A    between atoms: _377  and  _380
REMARK  158  A    between atoms: _383  and  _385
REMARK  159  A    between atoms: _385  and  _386
REMARK  160  A    between atoms: _385  and  _388
REMARK  161  A    between atoms: _388  and  _389
REMARK  162  A    between atoms: _389  and  _390
REMARK  163  A    between atoms: _390  and  _391
REMARK  164  A    between atoms: _391  and  _392
REMARK  165  A    between atoms: _396  and  _398
REMARK  166  A    between atoms: _398  and  _399
REMARK  167  A    between atoms: _398  and  _401
REMARK  168  A    between atoms: _401  and  _402
REMARK  169  A    between atoms: _402  and  _403
REMARK  170  A    between atoms: _405  and  _407
REMARK  171  A    between atoms: _407  and  _408
REMARK  172  A    between atoms: _407  and  _410
REMARK  173  A    between atoms: _410  and  _411
REMARK  174  A    between atoms: _414  and  _416
REMARK  175  A    between atoms: _416  and  _417
REMARK  176  A    between atoms: _419  and  _421
REMARK  177  A    between atoms: _421  and  _422
REMARK  178  A    between atoms: _424  and  _426
REMARK  179  A    between atoms: _426  and  _427
REMARK  180  A    between atoms: _426  and  _429
REMARK  181  A    between atoms: _429  and  _430
REMARK  182  A    between atoms: _433  and  _435
REMARK  183  A    between atoms: _435  and  _436
REMARK  184  A    between atoms: _438  and  _440
REMARK  185  A    between atoms: _440  and  _441
REMARK  186  A    between atoms: _443  and  _445
REMARK  187  A    between atoms: _445  and  _446
REMARK  188  A    between atoms: _445  and  _448
REMARK  189  A    between atoms: _448  and  _449
REMARK  190  A    between atoms: _455  and  _457
REMARK  191  A    between atoms: _457  and  _458
REMARK  192  A    between atoms: _457  and  _460
REMARK  193  A    between atoms: _460  and  _461
REMARK  194  A    between atoms: _464  and  _466
REMARK  195  A    between atoms: _466  and  _467
REMARK  196  A    between atoms: _466  and  _469
REMARK  197  A    between atoms: _469  and  _470
REMARK  198  A    between atoms: _473  and  _475
REMARK  199  A    between atoms: _475  and  _476
REMARK  200  A    between atoms: _475  and  _478
REMARK  201  A    between atoms: _478  and  _479
REMARK  202  A    between atoms: _483  and  _484
REMARK  203  A    between atoms: _489  and  _491
REMARK  204  A    between atoms: _491  and  _492
REMARK  205  A    between atoms: _491  and  _494
REMARK  206  A    between atoms: _497  and  _499
REMARK  207  A    between atoms: _499  and  _500
REMARK  208  A    between atoms: _499  and  _502
REMARK  209  A    between atoms: _502  and  _503
REMARK  210  A    between atoms: _508  and  _510
REMARK  211  A    between atoms: _510  and  _511
REMARK  212  A    between atoms: _510  and  _513
REMARK  213  A    between atoms: _513  and  _514
REMARK  214  A    between atoms: _517  and  _519
REMARK  215  A    between atoms: _519  and  _520
REMARK  216  A    between atoms: _519  and  _522
REMARK  217  A    between atoms: _522  and  _523
REMARK  218  A    between atoms: _526  and  _528
REMARK  219  A    between atoms: _528  and  _529
REMARK  220  A    between atoms: _531  and  _533
REMARK  221  A    between atoms: _533  and  _534
REMARK  222  A    between atoms: _533  and  _536
REMARK  223  A    between atoms: _536  and  _537
REMARK  224  A    between atoms: _537  and  _538
REMARK  225  A    between atoms: _538  and  _539
REMARK  226  A    between atoms: _548  and  _550
REMARK  227  A    between atoms: _550  and  _551
REMARK  228  A    between atoms: _550  and  _553
REMARK  229  A    between atoms: _553  and  _554
REMARK                            x       y       z     vdW  Elec       q    Type
REMARK                         _______ _______ _______ _____ _____    ______ ____
ROOT
ATOM      1  O   HOH     1      21.860  39.374  16.607  0.00  0.00    +0.000 OA
ENDROOT
TORSDOF 0
REMARK  Name = ../refined-set-2016/3mxe/3mxe_pocket.pdb
REMARK  229 active torsions:
REMARK  status: ('A' for Active; 'I' for Inactive)
REMARK    1  A    between atoms: _1  and  _3
REMARK    2  A    between atoms: _3  and  _4
REMARK    3  A    between atoms: _3  and  _6
REMARK    4  A    between atoms: _6  and  _7
REMARK    5  A    between atoms: _7  and  _8
REMARK    6  A    between atoms: _8  and  _9
REMARK    7  A    between atoms: _18  and  _20
REMARK    8  A    between atoms: _20  and  _21
REMARK    9  A    between atoms: _20  and  _23
REMARK   10  A    between atoms: _23  and  _24
REMARK   11  A    between atoms: _27  and  _29
REMARK   12  A    between atoms: _29  and  _30
REMARK   13  A    between atoms: _29  and  _32
REMARK   14  A    between atoms: _32  and  _33
REMARK   15  A    between atoms: _36  and  _38
REMARK   16  A    between atoms: _38  and  _39
REMARK   17  A    between atoms: _38  and  _41
REMARK   18  A    between atoms: _41  and  _42
REMARK   19  A    between atoms: _45  and  _47
REMARK   20  A    between atoms: _47  and  _48
REMARK   21  A    between atoms: _47  and  _50
REMARK   22  A    between atoms: _50  and  _51
REMARK   23  A    between atoms: _54  and  _56
REMARK   24  A    between atoms: _56  and  _57
REMARK   25  A    between atoms: _59  and  _61
REMARK   26  A    between atoms: _61  and  _62
REMARK   27  A    between atoms: _65  and  _67
REMARK   28  A    between atoms: _67  and  _68
REMARK   29  A    between atoms: _67  and  _70
REMARK   30  A    between atoms: _70  and  _71
REMARK   31  A    between atoms: _74  and  _76
REMARK   32  A    between atoms: _76  and  _77
REMARK   33  A    between atoms: _76  and  _79
REMARK   34  A    between atoms: _79  and  _80
REMARK   35  A    between atoms: _83  and  _85
REMARK   36  A    between atoms: _85  and  _86
REMARK   37  A    between atoms: _85  and  _88
REMARK   38  A    between atoms: _88  and  _89
REMARK   39  A    between atoms: _92  and  _94
REMARK   40  A    between atoms: _94  and  _95
REMARK   41  A    between atoms: _94  and  _97
REMARK   42  A    between atoms: _100  and  _102
REMARK   43  A    between atoms: _102  and  _103
REMARK   44  A    between atoms: _102  and  _105
REMARK   45  A    between atoms: _105  and  _106
REMARK   46  A    between atoms: _106  and  _107
REMARK   47  A    between atoms: _107  and  _108
REMARK   48  A    between atoms: _108  and  _109
REMARK   49  A    between atoms: _113  and  _115
REMARK   50  A    between atoms: _115  and  _116
REMARK   51  A    between atoms: _115  and  _118
REMARK   52  A    between atoms: _118  and  _119
REMARK   53  A    between atoms: _119  and  _120
REMARK   54  A    between atoms: _122  and  _124
REMARK   55  A    between atoms: _124  and  _125
REMARK   56  A    between atoms: _124  and  _127
REMARK   57  A    between atoms: _127  and  _128
REMARK   58  A    between atoms: _131  and  _133
REMARK   59  A    between atoms: _133  and  _134
REMARK   60  A    between atoms: _136  and  _138
REMARK   61  A    between atoms: _138  and  _139
REMARK   62  A    between atoms: _141  and  _143
REMARK   63  A    between atoms: _143  and  _144
REMARK   64  A    between atoms: _143  and  _146
REMARK   65  A    between atoms: _146  and  _147
REMARK   66  A    between atoms: _150  and  _152
REMARK   67  A    between atoms: _152  and  _153
REMARK   68  A    between atoms: _155  and  _157
REMARK   69  A    between atoms: _157  and  _158
REMARK   70  A    between atoms: _160  and  _162
REMARK   71  A    between atoms: _162  and  _163
REMARK   72  A    between atoms: _162  and  _165
REMARK   73  A    between atoms: _165  and  _166
REMARK   74  A    between atoms: _172  and  _174
REMARK   75  A    between atoms: _174  and  _175
REMARK   76  A    between atoms: _174  and  _177
REMARK   77  A    between atoms: _177  and  _178
REMARK   78  A    between atoms: _181  and  _183
REMARK   79  A    between atoms: _183  and  _184
REMARK   80  A    between atoms: _183  and  _186
REMARK   81  A    between atoms: _189  and  _191
REMARK   82  A    between atoms: _191  and  _192
REMARK   83  A    between atoms: _191  and  _194
REMARK   84  A    between atoms: _194  and  _195
REMARK   85  A    between atoms: _198  and  _200
REMARK   86  A    between atoms: _200  and  _201
REMARK   87  A    between atoms: _200  and  _203
REMARK   88  A    between atoms: _203  and  _204
REMARK   89  A    between atoms: _208  and  _209
REMARK   90  A    between atoms: _214  and  _216
REMARK   91  A    between atoms: _216  and  _217
REMARK   92  A    between atoms: _216  and  _219
REMARK   93  A    between atoms: _222  and  _224
REMARK   94  A    between atoms: _224  and  _225
REMARK   95  A    between atoms: _224  and  _227
REMARK   96  A    between atoms: _227  and  _228
REMARK   97  A    between atoms: _233  and  _235
REMARK   98  A    between atoms: _235  and  _236
REMARK   99  A    between atoms: _235  and  _238
REMARK  100  A    between atoms: _238  and  _239
REMARK  101  A    between atoms: _242  and  _244
REMARK  102  A    between atoms: _244  and  _245
REMARK  103  A    between atoms: _244  and  _247
REMARK  104  A    between atoms: _247  and  _248
REMARK  105  A    between atoms: _251  and  _253
REMARK  106  A    between atoms: _253  and  _254
REMARK  107  A    between atoms: _256  and  _258
REMARK  108  A    between atoms: _258  and  _259
REMARK  109  A    between atoms: _258  and  _261
REMARK  110  A    between atoms: _261  and  _262
REMARK  111  A    between atoms: _262  and  _263
REMARK  112  A    between atoms: _263  and  _264
REMARK  113  A    between atoms: _273  and  _275
REMARK  114  A    between atoms: _275  and  _276
REMARK  115  A    between atoms: _275  and  _278
REMARK  116  A    between atoms: _278  and  _279
REMARK  117  A    between atoms: _284  and  _286
REMARK  118  A    between atoms: _286  and  _287
REMARK  119  A    between atoms: _286  and  _289
REMARK  120  A    between atoms: _289  and  _290
REMARK  121  A    between atoms: _290  and  _291
REMARK  122  A    between atoms: _291  and  _292
REMARK  123  A    between atoms: _301  and  _303
REMARK  124  A    between atoms: _303  and  _304
REMARK  125  A    between atoms: _303  and  _306
REMARK  126  A    between atoms: _306  and  _307
REMARK  127  A    between atoms: _310  and  _312
REMARK  128  A    between atoms: _312  and  _313
REMARK  129  A    between atoms: _312  and  _315
REMARK  130  A    between atoms: _315  and  _316
REMARK  131  A    between atoms: _319  and  _321
REMARK  132  A    between atoms: _321  and  _322
REMARK  133  A    between atoms: _321  and  _324
REMARK  134  A    between atoms: _324  and  _325
REMARK  135  A    between atoms: _328  and  _330
REMARK  136  A    between atoms: _330  and  _331
REMARK  137  A    between atoms: _330  and  _333
REMARK  138  A    between atoms: _333  and  _334
REMARK  139  A    between atoms: _337  and  _339
REMARK  140  A    between atoms: _339  and  _340
REMARK  141  A    between atoms: _342  and  _344
REMARK  142  A    between atoms: _344  and  _345
REMARK  143  A    between atoms: _348  and  _350
REMARK  144  A    between atoms: _350  and  _351
REMARK  145  A    between atoms: _350  and  _353
REMARK  146  A    between atoms: _353  and  _354
REMARK  147  A    between atoms: _357  and  _359
REMARK  148  A    between atoms: _359  and  _360
REMARK  149  A    between atoms: _359  and  _362
REMARK  150  A    between atoms: _362  and  _363
REMARK  151  A    between atoms: _366  and  _368
REMARK  152  A    between atoms: _368  and  _369
REMARK  153  A    between atoms: _368  and  _371
REMARK  154  A    between atoms: _371  and  _372
REMARK  155  A    between atoms: _375  and  _377
REMARK  156  A    between atoms: _377  and  _378
REMARK  157  A    between atoms: _377  and  _380
REMARK  158  A    between atoms: _383  and  _385
REMARK  159  A    between atoms: _385  and  _386
REMARK  160  A    between atoms: _385  and  _388
REMARK  161  A    between atoms: _388  and  _389
REMARK  162  A    between atoms: _389  and  _390
REMARK  163  A    between atoms: _390  and  _391
REMARK  164  A    between atoms: _391  and  _392
REMARK  165  A    between atoms: _396  and  _398
REMARK  166  A    between atoms: _398  and  _399
REMARK  167  A    between atoms: _398  and  _401
REMARK  168  A    between atoms: _401  and  _402
REMARK  169  A    between atoms: _402  and  _403
REMARK  170  A    between atoms: _405  and  _407
REMARK  171  A    between atoms: _407  and  _408
REMARK  172  A    between atoms: _407  and  _410
REMARK  173  A    between atoms: _410  and  _411
REMARK  174  A    between atoms: _414  and  _416
REMARK  175  A    between atoms: _416  and  _417
REMARK  176  A    between atoms: _419  and  _421
REMARK  177  A    between atoms: _421  and  _422
REMARK  178  A    between atoms: _424  and  _426
REMARK  179  A    between atoms: _426  and  _427
REMARK  180  A    between atoms: _426  and  _429
REMARK  181  A    between atoms: _429  and  _430
REMARK  182  A    between atoms: _433  and  _435
REMARK  183  A    between atoms: _435  and  _436
REMARK  184  A    between atoms: _438  and  _440
REMARK  185  A    between atoms: _440  and  _441
REMARK  186  A    between atoms: _443  and  _445
REMARK  187  A    between atoms: _445  and  _446
REMARK  188  A    between atoms: _445  and  _448
REMARK  189  A    between atoms: _448  and  _449
REMARK  190  A    between atoms: _455  and  _457
REMARK  191  A    between atoms: _457  and  _458
REMARK  192  A    between atoms: _457  and  _460
REMARK  193  A    between atoms: _460  and  _461
REMARK  194  A    between atoms: _464  and  _466
REMARK  195  A    between atoms: _466  and  _467
REMARK  196  A    between atoms: _466  and  _469
REMARK  197  A    between atoms: _469  and  _470
REMARK  198  A    between atoms: _473  and  _475
REMARK  199  A    between atoms: _475  and  _476
REMARK  200  A    between atoms: _475  and  _478
REMARK  201  A    between atoms: _478  and  _479
REMARK  202  A    between atoms: _483  and  _484
REMARK  203  A    between atoms: _489  and  _491
REMARK  204  A    between atoms: _491  and  _492
REMARK  205  A    between atoms: _491  and  _494
REMARK  206  A    between atoms: _497  and  _499
REMARK  207  A    between atoms: _499  and  _500
REMARK  208  A    between atoms: _499  and  _502
REMARK  209  A    between atoms: _502  and  _503
REMARK  210  A    between atoms: _508  and  _510
REMARK  211  A    between atoms: _510  and  _511
REMARK  212  A    between atoms: _510  and  _513
REMARK  213  A    between atoms: _513  and  _514
REMARK  214  A    between atoms: _517  and  _519
REMARK  215  A    between atoms: _519  and  _520
REMARK  216  A    between atoms: _519  and  _522
REMARK  217  A    between atoms: _522  and  _523
REMARK  218  A    between atoms: _526  and  _528
REMARK  219  A    between atoms: _528  and  _529
REMARK  220  A    between atoms: _531  and  _533
REMARK  221  A    between atoms: _533  and  _534
REMARK  222  A    between atoms: _533  and  _536
REMARK  223  A    between atoms: _536  and  _537
REMARK  224  A    between atoms: _537  and  _538
REMARK  225  A    between atoms: _538  and  _539
REMARK  226  A    between atoms: _548  and  _550
REMARK  227  A    between atoms: _550  and  _551
REMARK  228  A    between atoms: _550  and  _553
REMARK  229  A    between atoms: _553  and  _554
REMARK                            x       y       z     vdW  Elec       q    Type
REMARK                         _______ _______ _______ _____ _____    ______ ____
ROOT
ATOM      1  O   HOH     1      21.034  36.870  15.909  0.00  0.00    +0.000 OA
ENDROOT
TORSDOF 0
REMARK  Name = ../refined-set-2016/3mxe/3mxe_pocket.pdb
REMARK  229 active torsions:
REMARK  status: ('A' for Active; 'I' for Inactive)
REMARK    1  A    between atoms: _1  and  _3
REMARK    2  A    between atoms: _3  and  _4
REMARK    3  A    between atoms: _3  and  _6
REMARK    4  A    between atoms: _6  and  _7
REMARK    5  A    between atoms: _7  and  _8
REMARK    6  A    between atoms: _8  and  _9
REMARK    7  A    between atoms: _18  and  _20
REMARK    8  A    between atoms: _20  and  _21
REMARK    9  A    between atoms: _20  and  _23
REMARK   10  A    between atoms: _23  and  _24
REMARK   11  A    between atoms: _27  and  _29
REMARK   12  A    between atoms: _29  and  _30
REMARK   13  A    between atoms: _29  and  _32
REMARK   14  A    between atoms: _32  and  _33
REMARK   15  A    between atoms: _36  and  _38
REMARK   16  A    between atoms: _38  and  _39
REMARK   17  A    between atoms: _38  and  _41
REMARK   18  A    between atoms: _41  and  _42
REMARK   19  A    between atoms: _45  and  _47
REMARK   20  A    between atoms: _47  and  _48
REMARK   21  A    between atoms: _47  and  _50
REMARK   22  A    between atoms: _50  and  _51
REMARK   23  A    between atoms: _54  and  _56
REMARK   24  A    between atoms: _56  and  _57
REMARK   25  A    between atoms: _59  and  _61
REMARK   26  A    between atoms: _61  and  _62
REMARK   27  A    between atoms: _65  and  _67
REMARK   28  A    between atoms: _67  and  _68
REMARK   29  A    between atoms: _67  and  _70
REMARK   30  A    between atoms: _70  and  _71
REMARK   31  A    between atoms: _74  and  _76
REMARK   32  A    between atoms: _76  and  _77
REMARK   33  A    between atoms: _76  and  _79
REMARK   34  A    between atoms: _79  and  _80
REMARK   35  A    between atoms: _83  and  _85
REMARK   36  A    between atoms: _85  and  _86
REMARK   37  A    between atoms: _85  and  _88
REMARK   38  A    between atoms: _88  and  _89
REMARK   39  A    between atoms: _92  and  _94
REMARK   40  A    between atoms: _94  and  _95
REMARK   41  A    between atoms: _94  and  _97
REMARK   42  A    between atoms: _100  and  _102
REMARK   43  A    between atoms: _102  and  _103
REMARK   44  A    between atoms: _102  and  _105
REMARK   45  A    between atoms: _105  and  _106
REMARK   46  A    between atoms: _106  and  _107
REMARK   47  A    between atoms: _107  and  _108
REMARK   48  A    between atoms: _108  and  _109
REMARK   49  A    between atoms: _113  and  _115
REMARK   50  A    between atoms: _115  and  _116
REMARK   51  A    between atoms: _115  and  _118
REMARK   52  A    between atoms: _118  and  _119
REMARK   53  A    between atoms: _119  and  _120
REMARK   54  A    between atoms: _122  and  _124
REMARK   55  A    between atoms: _124  and  _125
REMARK   56  A    between atoms: _124  and  _127
REMARK   57  A    between atoms: _127  and  _128
REMARK   58  A    between atoms: _131  and  _133
REMARK   59  A    between atoms: _133  and  _134
REMARK   60  A    between atoms: _136  and  _138
REMARK   61  A    between atoms: _138  and  _139
REMARK   62  A    between atoms: _141  and  _143
REMARK   63  A    between atoms: _143  and  _144
REMARK   64  A    between atoms: _143  and  _146
REMARK   65  A    between atoms: _146  and  _147
REMARK   66  A    between atoms: _150  and  _152
REMARK   67  A    between atoms: _152  and  _153
REMARK   68  A    between atoms: _155  and  _157
REMARK   69  A    between atoms: _157  and  _158
REMARK   70  A    between atoms: _160  and  _162
REMARK   71  A    between atoms: _162  and  _163
REMARK   72  A    between atoms: _162  and  _165
REMARK   73  A    between atoms: _165  and  _166
REMARK   74  A    between atoms: _172  and  _174
REMARK   75  A    between atoms: _174  and  _175
REMARK   76  A    between atoms: _174  and  _177
REMARK   77  A    between atoms: _177  and  _178
REMARK   78  A    between atoms: _181  and  _183
REMARK   79  A    between atoms: _183  and  _184
REMARK   80  A    between atoms: _183  and  _186
REMARK   81  A    between atoms: _189  and  _191
REMARK   82  A    between atoms: _191  and  _192
REMARK   83  A    between atoms: _191  and  _194
REMARK   84  A    between atoms: _194  and  _195
REMARK   85  A    between atoms: _198  and  _200
REMARK   86  A    between atoms: _200  and  _201
REMARK   87  A    between atoms: _200  and  _203
REMARK   88  A    between atoms: _203  and  _204
REMARK   89  A    between atoms: _208  and  _209
REMARK   90  A    between atoms: _214  and  _216
REMARK   91  A    between atoms: _216  and  _217
REMARK   92  A    between atoms: _216  and  _219
REMARK   93  A    between atoms: _222  and  _224
REMARK   94  A    between atoms: _224  and  _225
REMARK   95  A    between atoms: _224  and  _227
REMARK   96  A    between atoms: _227  and  _228
REMARK   97  A    between atoms: _233  and  _235
REMARK   98  A    between atoms: _235  and  _236
REMARK   99  A    between atoms: _235  and  _238
REMARK  100  A    between atoms: _238  and  _239
REMARK  101  A    between atoms: _242  and  _244
REMARK  102  A    between atoms: _244  and  _245
REMARK  103  A    between atoms: _244  and  _247
REMARK  104  A    between atoms: _247  and  _248
REMARK  105  A    between atoms: _251  and  _253
REMARK  106  A    between atoms: _253  and  _254
REMARK  107  A    between atoms: _256  and  _258
REMARK  108  A    between atoms: _258  and  _259
REMARK  109  A    between atoms: _258  and  _261
REMARK  110  A    between atoms: _261  and  _262
REMARK  111  A    between atoms: _262  and  _263
REMARK  112  A    between atoms: _263  and  _264
REMARK  113  A    between atoms: _273  and  _275
REMARK  114  A    between atoms: _275  and  _276
REMARK  115  A    between atoms: _275  and  _278
REMARK  116  A    between atoms: _278  and  _279
REMARK  117  A    between atoms: _284  and  _286
REMARK  118  A    between atoms: _286  and  _287
REMARK  119  A    between atoms: _286  and  _289
REMARK  120  A    between atoms: _289  and  _290
REMARK  121  A    between atoms: _290  and  _291
REMARK  122  A    between atoms: _291  and  _292
REMARK  123  A    between atoms: _301  and  _303
REMARK  124  A    between atoms: _303  and  _304
REMARK  125  A    between atoms: _303  and  _306
REMARK  126  A    between atoms: _306  and  _307
REMARK  127  A    between atoms: _310  and  _312
REMARK  128  A    between atoms: _312  and  _313
REMARK  129  A    between atoms: _312  and  _315
REMARK  130  A    between atoms: _315  and  _316
REMARK  131  A    between atoms: _319  and  _321
REMARK  132  A    between atoms: _321  and  _322
REMARK  133  A    between atoms: _321  and  _324
REMARK  134  A    between atoms: _324  and  _325
REMARK  135  A    between atoms: _328  and  _330
REMARK  136  A    between atoms: _330  and  _331
REMARK  137  A    between atoms: _330  and  _333
REMARK  138  A    between atoms: _333  and  _334
REMARK  139  A    between atoms: _337  and  _339
REMARK  140  A    between atoms: _339  and  _340
REMARK  141  A    between atoms: _342  and  _344
REMARK  142  A    between atoms: _344  and  _345
REMARK  143  A    between atoms: _348  and  _350
REMARK  144  A    between atoms: _350  and  _351
REMARK  145  A    between atoms: _350  and  _353
REMARK  146  A    between atoms: _353  and  _354
REMARK  147  A    between atoms: _357  and  _359
REMARK  148  A    between atoms: _359  and  _360
REMARK  149  A    between atoms: _359  and  _362
REMARK  150  A    between atoms: _362  and  _363
REMARK  151  A    between atoms: _366  and  _368
REMARK  152  A    between atoms: _368  and  _369
REMARK  153  A    between atoms: _368  and  _371
REMARK  154  A    between atoms: _371  and  _372
REMARK  155  A    between atoms: _375  and  _377
REMARK  156  A    between atoms: _377  and  _378
REMARK  157  A    between atoms: _377  and  _380
REMARK  158  A    between atoms: _383  and  _385
REMARK  159  A    between atoms: _385  and  _386
REMARK  160  A    between atoms: _385  and  _388
REMARK  161  A    between atoms: _388  and  _389
REMARK  162  A    between atoms: _389  and  _390
REMARK  163  A    between atoms: _390  and  _391
REMARK  164  A    between atoms: _391  and  _392
REMARK  165  A    between atoms: _396  and  _398
REMARK  166  A    between atoms: _398  and  _399
REMARK  167  A    between atoms: _398  and  _401
REMARK  168  A    between atoms: _401  and  _402
REMARK  169  A    between atoms: _402  and  _403
REMARK  170  A    between atoms: _405  and  _407
REMARK  171  A    between atoms: _407  and  _408
REMARK  172  A    between atoms: _407  and  _410
REMARK  173  A    between atoms: _410  and  _411
REMARK  174  A    between atoms: _414  and  _416
REMARK  175  A    between atoms: _416  and  _417
REMARK  176  A    between atoms: _419  and  _421
REMARK  177  A    between atoms: _421  and  _422
REMARK  178  A    between atoms: _424  and  _426
REMARK  179  A    between atoms: _426  and  _427
REMARK  180  A    between atoms: _426  and  _429
REMARK  181  A    between atoms: _429  and  _430
REMARK  182  A    between atoms: _433  and  _435
REMARK  183  A    between atoms: _435  and  _436
REMARK  184  A    between atoms: _438  and  _440
REMARK  185  A    between atoms: _440  and  _441
REMARK  186  A    between atoms: _443  and  _445
REMARK  187  A    between atoms: _445  and  _446
REMARK  188  A    between atoms: _445  and  _448
REMARK  189  A    between atoms: _448  and  _449
REMARK  190  A    between atoms: _455  and  _457
REMARK  191  A    between atoms: _457  and  _458
REMARK  192  A    between atoms: _457  and  _460
REMARK  193  A    between atoms: _460  and  _461
REMARK  194  A    between atoms: _464  and  _466
REMARK  195  A    between atoms: _466  and  _467
REMARK  196  A    between atoms: _466  and  _469
REMARK  197  A    between atoms: _469  and  _470
REMARK  198  A    between atoms: _473  and  _475
REMARK  199  A    between atoms: _475  and  _476
REMARK  200  A    between atoms: _475  and  _478
REMARK  201  A    between atoms: _478  and  _479
REMARK  202  A    between atoms: _483  and  _484
REMARK  203  A    between atoms: _489  and  _491
REMARK  204  A    between atoms: _491  and  _492
REMARK  205  A    between atoms: _491  and  _494
REMARK  206  A    between atoms: _497  and  _499
REMARK  207  A    between atoms: _499  and  _500
REMARK  208  A    between atoms: _499  and  _502
REMARK  209  A    between atoms: _502  and  _503
REMARK  210  A    between atoms: _508  and  _510
REMARK  211  A    between atoms: _510  and  _511
REMARK  212  A    between atoms: _510  and  _513
REMARK  213  A    between atoms: _513  and  _514
REMARK  214  A    between atoms: _517  and  _519
REMARK  215  A    between atoms: _519  and  _520
REMARK  216  A    between atoms: _519  and  _522
REMARK  217  A    between atoms: _522  and  _523
REMARK  218  A    between atoms: _526  and  _528
REMARK  219  A    between atoms: _528  and  _529
REMARK  220  A    between atoms: _531  and  _533
REMARK  221  A    between atoms: _533  and  _534
REMARK  222  A    between atoms: _533  and  _536
REMARK  223  A    between atoms: _536  and  _537
REMARK  224  A    between atoms: _537  and  _538
REMARK  225  A    between atoms: _538  and  _539
REMARK  226  A    between atoms: _548  and  _550
REMARK  227  A    between atoms: _550  and  _551
REMARK  228  A    between atoms: _550  and  _553
REMARK  229  A    between atoms: _553  and  _554
REMARK                            x       y       z     vdW  Elec       q    Type
REMARK                         _______ _______ _______ _____ _____    ______ ____
ROOT
ATOM      1  O   HOH     1      20.612  34.349  21.678  0.00  0.00    +0.000 OA
ENDROOT
TORSDOF 0
REMARK  Name = ../refined-set-2016/3mxe/3mxe_pocket.pdb
REMARK  229 active torsions:
REMARK  status: ('A' for Active; 'I' for Inactive)
REMARK    1  A    between atoms: _1  and  _3
REMARK    2  A    between atoms: _3  and  _4
REMARK    3  A    between atoms: _3  and  _6
REMARK    4  A    between atoms: _6  and  _7
REMARK    5  A    between atoms: _7  and  _8
REMARK    6  A    between atoms: _8  and  _9
REMARK    7  A    between atoms: _18  and  _20
REMARK    8  A    between atoms: _20  and  _21
REMARK    9  A    between atoms: _20  and  _23
REMARK   10  A    between atoms: _23  and  _24
REMARK   11  A    between atoms: _27  and  _29
REMARK   12  A    between atoms: _29  and  _30
REMARK   13  A    between atoms: _29  and  _32
REMARK   14  A    between atoms: _32  and  _33
REMARK   15  A    between atoms: _36  and  _38
REMARK   16  A    between atoms: _38  and  _39
REMARK   17  A    between atoms: _38  and  _41
REMARK   18  A    between atoms: _41  and  _42
REMARK   19  A    between atoms: _45  and  _47
REMARK   20  A    between atoms: _47  and  _48
REMARK   21  A    between atoms: _47  and  _50
REMARK   22  A    between atoms: _50  and  _51
REMARK   23  A    between atoms: _54  and  _56
REMARK   24  A    between atoms: _56  and  _57
REMARK   25  A    between atoms: _59  and  _61
REMARK   26  A    between atoms: _61  and  _62
REMARK   27  A    between atoms: _65  and  _67
REMARK   28  A    between atoms: _67  and  _68
REMARK   29  A    between atoms: _67  and  _70
REMARK   30  A    between atoms: _70  and  _71
REMARK   31  A    between atoms: _74  and  _76
REMARK   32  A    between atoms: _76  and  _77
REMARK   33  A    between atoms: _76  and  _79
REMARK   34  A    between atoms: _79  and  _80
REMARK   35  A    between atoms: _83  and  _85
REMARK   36  A    between atoms: _85  and  _86
REMARK   37  A    between atoms: _85  and  _88
REMARK   38  A    between atoms: _88  and  _89
REMARK   39  A    between atoms: _92  and  _94
REMARK   40  A    between atoms: _94  and  _95
REMARK   41  A    between atoms: _94  and  _97
REMARK   42  A    between atoms: _100  and  _102
REMARK   43  A    between atoms: _102  and  _103
REMARK   44  A    between atoms: _102  and  _105
REMARK   45  A    between atoms: _105  and  _106
REMARK   46  A    between atoms: _106  and  _107
REMARK   47  A    between atoms: _107  and  _108
REMARK   48  A    between atoms: _108  and  _109
REMARK   49  A    between atoms: _113  and  _115
REMARK   50  A    between atoms: _115  and  _116
REMARK   51  A    between atoms: _115  and  _118
REMARK   52  A    between atoms: _118  and  _119
REMARK   53  A    between atoms: _119  and  _120
REMARK   54  A    between atoms: _122  and  _124
REMARK   55  A    between atoms: _124  and  _125
REMARK   56  A    between atoms: _124  and  _127
REMARK   57  A    between atoms: _127  and  _128
REMARK   58  A    between atoms: _131  and  _133
REMARK   59  A    between atoms: _133  and  _134
REMARK   60  A    between atoms: _136  and  _138
REMARK   61  A    between atoms: _138  and  _139
REMARK   62  A    between atoms: _141  and  _143
REMARK   63  A    between atoms: _143  and  _144
REMARK   64  A    between atoms: _143  and  _146
REMARK   65  A    between atoms: _146  and  _147
REMARK   66  A    between atoms: _150  and  _152
REMARK   67  A    between atoms: _152  and  _153
REMARK   68  A    between atoms: _155  and  _157
REMARK   69  A    between atoms: _157  and  _158
REMARK   70  A    between atoms: _160  and  _162
REMARK   71  A    between atoms: _162  and  _163
REMARK   72  A    between atoms: _162  and  _165
REMARK   73  A    between atoms: _165  and  _166
REMARK   74  A    between atoms: _172  and  _174
REMARK   75  A    between atoms: _174  and  _175
REMARK   76  A    between atoms: _174  and  _177
REMARK   77  A    between atoms: _177  and  _178
REMARK   78  A    between atoms: _181  and  _183
REMARK   79  A    between atoms: _183  and  _184
REMARK   80  A    between atoms: _183  and  _186
REMARK   81  A    between atoms: _189  and  _191
REMARK   82  A    between atoms: _191  and  _192
REMARK   83  A    between atoms: _191  and  _194
REMARK   84  A    between atoms: _194  and  _195
REMARK   85  A    between atoms: _198  and  _200
REMARK   86  A    between atoms: _200  and  _201
REMARK   87  A    between atoms: _200  and  _203
REMARK   88  A    between atoms: _203  and  _204
REMARK   89  A    between atoms: _208  and  _209
REMARK   90  A    between atoms: _214  and  _216
REMARK   91  A    between atoms: _216  and  _217
REMARK   92  A    between atoms: _216  and  _219
REMARK   93  A    between atoms: _222  and  _224
REMARK   94  A    between atoms: _224  and  _225
REMARK   95  A    between atoms: _224  and  _227
REMARK   96  A    between atoms: _227  and  _228
REMARK   97  A    between atoms: _233  and  _235
REMARK   98  A    between atoms: _235  and  _236
REMARK   99  A    between atoms: _235  and  _238
REMARK  100  A    between atoms: _238  and  _239
REMARK  101  A    between atoms: _242  and  _244
REMARK  102  A    between atoms: _244  and  _245
REMARK  103  A    between atoms: _244  and  _247
REMARK  104  A    between atoms: _247  and  _248
REMARK  105  A    between atoms: _251  and  _253
REMARK  106  A    between atoms: _253  and  _254
REMARK  107  A    between atoms: _256  and  _258
REMARK  108  A    between atoms: _258  and  _259
REMARK  109  A    between atoms: _258  and  _261
REMARK  110  A    between atoms: _261  and  _262
REMARK  111  A    between atoms: _262  and  _263
REMARK  112  A    between atoms: _263  and  _264
REMARK  113  A    between atoms: _273  and  _275
REMARK  114  A    between atoms: _275  and  _276
REMARK  115  A    between atoms: _275  and  _278
REMARK  116  A    between atoms: _278  and  _279
REMARK  117  A    between atoms: _284  and  _286
REMARK  118  A    between atoms: _286  and  _287
REMARK  119  A    between atoms: _286  and  _289
REMARK  120  A    between atoms: _289  and  _290
REMARK  121  A    between atoms: _290  and  _291
REMARK  122  A    between atoms: _291  and  _292
REMARK  123  A    between atoms: _301  and  _303
REMARK  124  A    between atoms: _303  and  _304
REMARK  125  A    between atoms: _303  and  _306
REMARK  126  A    between atoms: _306  and  _307
REMARK  127  A    between atoms: _310  and  _312
REMARK  128  A    between atoms: _312  and  _313
REMARK  129  A    between atoms: _312  and  _315
REMARK  130  A    between atoms: _315  and  _316
REMARK  131  A    between atoms: _319  and  _321
REMARK  132  A    between atoms: _321  and  _322
REMARK  133  A    between atoms: _321  and  _324
REMARK  134  A    between atoms: _324  and  _325
REMARK  135  A    between atoms: _328  and  _330
REMARK  136  A    between atoms: _330  and  _331
REMARK  137  A    between atoms: _330  and  _333
REMARK  138  A    between atoms: _333  and  _334
REMARK  139  A    between atoms: _337  and  _339
REMARK  140  A    between atoms: _339  and  _340
REMARK  141  A    between atoms: _342  and  _344
REMARK  142  A    between atoms: _344  and  _345
REMARK  143  A    between atoms: _348  and  _350
REMARK  144  A    between atoms: _350  and  _351
REMARK  145  A    between atoms: _350  and  _353
REMARK  146  A    between atoms: _353  and  _354
REMARK  147  A    between atoms: _357  and  _359
REMARK  148  A    between atoms: _359  and  _360
REMARK  149  A    between atoms: _359  and  _362
REMARK  150  A    between atoms: _362  and  _363
REMARK  151  A    between atoms: _366  and  _368
REMARK  152  A    between atoms: _368  and  _369
REMARK  153  A    between atoms: _368  and  _371
REMARK  154  A    between atoms: _371  and  _372
REMARK  155  A    between atoms: _375  and  _377
REMARK  156  A    between atoms: _377  and  _378
REMARK  157  A    between atoms: _377  and  _380
REMARK  158  A    between atoms: _383  and  _385
REMARK  159  A    between atoms: _385  and  _386
REMARK  160  A    between atoms: _385  and  _388
REMARK  161  A    between atoms: _388  and  _389
REMARK  162  A    between atoms: _389  and  _390
REMARK  163  A    between atoms: _390  and  _391
REMARK  164  A    between atoms: _391  and  _392
REMARK  165  A    between atoms: _396  and  _398
REMARK  166  A    between atoms: _398  and  _399
REMARK  167  A    between atoms: _398  and  _401
REMARK  168  A    between atoms: _401  and  _402
REMARK  169  A    between atoms: _402  and  _403
REMARK  170  A    between atoms: _405  and  _407
REMARK  171  A    between atoms: _407  and  _408
REMARK  172  A    between atoms: _407  and  _410
REMARK  173  A    between atoms: _410  and  _411
REMARK  174  A    between atoms: _414  and  _416
REMARK  175  A    between atoms: _416  and  _417
REMARK  176  A    between atoms: _419  and  _421
REMARK  177  A    between atoms: _421  and  _422
REMARK  178  A    between atoms: _424  and  _426
REMARK  179  A    between atoms: _426  and  _427
REMARK  180  A    between atoms: _426  and  _429
REMARK  181  A    between atoms: _429  and  _430
REMARK  182  A    between atoms: _433  and  _435
REMARK  183  A    between atoms: _435  and  _436
REMARK  184  A    between atoms: _438  and  _440
REMARK  185  A    between atoms: _440  and  _441
REMARK  186  A    between atoms: _443  and  _445
REMARK  187  A    between atoms: _445  and  _446
REMARK  188  A    between atoms: _445  and  _448
REMARK  189  A    between atoms: _448  and  _449
REMARK  190  A    between atoms: _455  and  _457
REMARK  191  A    between atoms: _457  and  _458
REMARK  192  A    between atoms: _457  and  _460
REMARK  193  A    between atoms: _460  and  _461
REMARK  194  A    between atoms: _464  and  _466
REMARK  195  A    between atoms: _466  and  _467
REMARK  196  A    between atoms: _466  and  _469
REMARK  197  A    between atoms: _469  and  _470
REMARK  198  A    between atoms: _473  and  _475
REMARK  199  A    between atoms: _475  and  _476
REMARK  200  A    between atoms: _475  and  _478
REMARK  201  A    between atoms: _478  and  _479
REMARK  202  A    between atoms: _483  and  _484
REMARK  203  A    between atoms: _489  and  _491
REMARK  204  A    between atoms: _491  and  _492
REMARK  205  A    between atoms: _491  and  _494
REMARK  206  A    between atoms: _497  and  _499
REMARK  207  A    between atoms: _499  and  _500
REMARK  208  A    between atoms: _499  and  _502
REMARK  209  A    between atoms: _502  and  _503
REMARK  210  A    between atoms: _508  and  _510
REMARK  211  A    between atoms: _510  and  _511
REMARK  212  A    between atoms: _510  and  _513
REMARK  213  A    between atoms: _513  and  _514
REMARK  214  A    between atoms: _517  and  _519
REMARK  215  A    between atoms: _519  and  _520
REMARK  216  A    between atoms: _519  and  _522
REMARK  217  A    between atoms: _522  and  _523
REMARK  218  A    between atoms: _526  and  _528
REMARK  219  A    between atoms: _528  and  _529
REMARK  220  A    between atoms: _531  and  _533
REMARK  221  A    between atoms: _533  and  _534
REMARK  222  A    between atoms: _533  and  _536
REMARK  223  A    between atoms: _536  and  _537
REMARK  224  A    between atoms: _537  and  _538
REMARK  225  A    between atoms: _538  and  _539
REMARK  226  A    between atoms: _548  and  _550
REMARK  227  A    between atoms: _550  and  _551
REMARK  228  A    between atoms: _550  and  _553
REMARK  229  A    between atoms: _553  and  _554
REMARK                            x       y       z     vdW  Elec       q    Type
REMARK                         _______ _______ _______ _____ _____    ______ ____
ROOT
ATOM      1  O   HOH     1      17.370  22.679  11.183  0.00  0.00    +0.000 OA
ENDROOT
TORSDOF 0
REMARK  Name = ../refined-set-2016/3mxe/3mxe_pocket.pdb
REMARK  229 active torsions:
REMARK  status: ('A' for Active; 'I' for Inactive)
REMARK    1  A    between atoms: _1  and  _3
REMARK    2  A    between atoms: _3  and  _4
REMARK    3  A    between atoms: _3  and  _6
REMARK    4  A    between atoms: _6  and  _7
REMARK    5  A    between atoms: _7  and  _8
REMARK    6  A    between atoms: _8  and  _9
REMARK    7  A    between atoms: _18  and  _20
REMARK    8  A    between atoms: _20  and  _21
REMARK    9  A    between atoms: _20  and  _23
REMARK   10  A    between atoms: _23  and  _24
REMARK   11  A    between atoms: _27  and  _29
REMARK   12  A    between atoms: _29  and  _30
REMARK   13  A    between atoms: _29  and  _32
REMARK   14  A    between atoms: _32  and  _33
REMARK   15  A    between atoms: _36  and  _38
REMARK   16  A    between atoms: _38  and  _39
REMARK   17  A    between atoms: _38  and  _41
REMARK   18  A    between atoms: _41  and  _42
REMARK   19  A    between atoms: _45  and  _47
REMARK   20  A    between atoms: _47  and  _48
REMARK   21  A    between atoms: _47  and  _50
REMARK   22  A    between atoms: _50  and  _51
REMARK   23  A    between atoms: _54  and  _56
REMARK   24  A    between atoms: _56  and  _57
REMARK   25  A    between atoms: _59  and  _61
REMARK   26  A    between atoms: _61  and  _62
REMARK   27  A    between atoms: _65  and  _67
REMARK   28  A    between atoms: _67  and  _68
REMARK   29  A    between atoms: _67  and  _70
REMARK   30  A    between atoms: _70  and  _71
REMARK   31  A    between atoms: _74  and  _76
REMARK   32  A    between atoms: _76  and  _77
REMARK   33  A    between atoms: _76  and  _79
REMARK   34  A    between atoms: _79  and  _80
REMARK   35  A    between atoms: _83  and  _85
REMARK   36  A    between atoms: _85  and  _86
REMARK   37  A    between atoms: _85  and  _88
REMARK   38  A    between atoms: _88  and  _89
REMARK   39  A    between atoms: _92  and  _94
REMARK   40  A    between atoms: _94  and  _95
REMARK   41  A    between atoms: _94  and  _97
REMARK   42  A    between atoms: _100  and  _102
REMARK   43  A    between atoms: _102  and  _103
REMARK   44  A    between atoms: _102  and  _105
REMARK   45  A    between atoms: _105  and  _106
REMARK   46  A    between atoms: _106  and  _107
REMARK   47  A    between atoms: _107  and  _108
REMARK   48  A    between atoms: _108  and  _109
REMARK   49  A    between atoms: _113  and  _115
REMARK   50  A    between atoms: _115  and  _116
REMARK   51  A    between atoms: _115  and  _118
REMARK   52  A    between atoms: _118  and  _119
REMARK   53  A    between atoms: _119  and  _120
REMARK   54  A    between atoms: _122  and  _124
REMARK   55  A    between atoms: _124  and  _125
REMARK   56  A    between atoms: _124  and  _127
REMARK   57  A    between atoms: _127  and  _128
REMARK   58  A    between atoms: _131  and  _133
REMARK   59  A    between atoms: _133  and  _134
REMARK   60  A    between atoms: _136  and  _138
REMARK   61  A    between atoms: _138  and  _139
REMARK   62  A    between atoms: _141  and  _143
REMARK   63  A    between atoms: _143  and  _144
REMARK   64  A    between atoms: _143  and  _146
REMARK   65  A    between atoms: _146  and  _147
REMARK   66  A    between atoms: _150  and  _152
REMARK   67  A    between atoms: _152  and  _153
REMARK   68  A    between atoms: _155  and  _157
REMARK   69  A    between atoms: _157  and  _158
REMARK   70  A    between atoms: _160  and  _162
REMARK   71  A    between atoms: _162  and  _163
REMARK   72  A    between atoms: _162  and  _165
REMARK   73  A    between atoms: _165  and  _166
REMARK   74  A    between atoms: _172  and  _174
REMARK   75  A    between atoms: _174  and  _175
REMARK   76  A    between atoms: _174  and  _177
REMARK   77  A    between atoms: _177  and  _178
REMARK   78  A    between atoms: _181  and  _183
REMARK   79  A    between atoms: _183  and  _184
REMARK   80  A    between atoms: _183  and  _186
REMARK   81  A    between atoms: _189  and  _191
REMARK   82  A    between atoms: _191  and  _192
REMARK   83  A    between atoms: _191  and  _194
REMARK   84  A    between atoms: _194  and  _195
REMARK   85  A    between atoms: _198  and  _200
REMARK   86  A    between atoms: _200  and  _201
REMARK   87  A    between atoms: _200  and  _203
REMARK   88  A    between atoms: _203  and  _204
REMARK   89  A    between atoms: _208  and  _209
REMARK   90  A    between atoms: _214  and  _216
REMARK   91  A    between atoms: _216  and  _217
REMARK   92  A    between atoms: _216  and  _219
REMARK   93  A    between atoms: _222  and  _224
REMARK   94  A    between atoms: _224  and  _225
REMARK   95  A    between atoms: _224  and  _227
REMARK   96  A    between atoms: _227  and  _228
REMARK   97  A    between atoms: _233  and  _235
REMARK   98  A    between atoms: _235  and  _236
REMARK   99  A    between atoms: _235  and  _238
REMARK  100  A    between atoms: _238  and  _239
REMARK  101  A    between atoms: _242  and  _244
REMARK  102  A    between atoms: _244  and  _245
REMARK  103  A    between atoms: _244  and  _247
REMARK  104  A    between atoms: _247  and  _248
REMARK  105  A    between atoms: _251  and  _253
REMARK  106  A    between atoms: _253  and  _254
REMARK  107  A    between atoms: _256  and  _258
REMARK  108  A    between atoms: _258  and  _259
REMARK  109  A    between atoms: _258  and  _261
REMARK  110  A    between atoms: _261  and  _262
REMARK  111  A    between atoms: _262  and  _263
REMARK  112  A    between atoms: _263  and  _264
REMARK  113  A    between atoms: _273  and  _275
REMARK  114  A    between atoms: _275  and  _276
REMARK  115  A    between atoms: _275  and  _278
REMARK  116  A    between atoms: _278  and  _279
REMARK  117  A    between atoms: _284  and  _286
REMARK  118  A    between atoms: _286  and  _287
REMARK  119  A    between atoms: _286  and  _289
REMARK  120  A    between atoms: _289  and  _290
REMARK  121  A    between atoms: _290  and  _291
REMARK  122  A    between atoms: _291  and  _292
REMARK  123  A    between atoms: _301  and  _303
REMARK  124  A    between atoms: _303  and  _304
REMARK  125  A    between atoms: _303  and  _306
REMARK  126  A    between atoms: _306  and  _307
REMARK  127  A    between atoms: _310  and  _312
REMARK  128  A    between atoms: _312  and  _313
REMARK  129  A    between atoms: _312  and  _315
REMARK  130  A    between atoms: _315  and  _316
REMARK  131  A    between atoms: _319  and  _321
REMARK  132  A    between atoms: _321  and  _322
REMARK  133  A    between atoms: _321  and  _324
REMARK  134  A    between atoms: _324  and  _325
REMARK  135  A    between atoms: _328  and  _330
REMARK  136  A    between atoms: _330  and  _331
REMARK  137  A    between atoms: _330  and  _333
REMARK  138  A    between atoms: _333  and  _334
REMARK  139  A    between atoms: _337  and  _339
REMARK  140  A    between atoms: _339  and  _340
REMARK  141  A    between atoms: _342  and  _344
REMARK  142  A    between atoms: _344  and  _345
REMARK  143  A    between atoms: _348  and  _350
REMARK  144  A    between atoms: _350  and  _351
REMARK  145  A    between atoms: _350  and  _353
REMARK  146  A    between atoms: _353  and  _354
REMARK  147  A    between atoms: _357  and  _359
REMARK  148  A    between atoms: _359  and  _360
REMARK  149  A    between atoms: _359  and  _362
REMARK  150  A    between atoms: _362  and  _363
REMARK  151  A    between atoms: _366  and  _368
REMARK  152  A    between atoms: _368  and  _369
REMARK  153  A    between atoms: _368  and  _371
REMARK  154  A    between atoms: _371  and  _372
REMARK  155  A    between atoms: _375  and  _377
REMARK  156  A    between atoms: _377  and  _378
REMARK  157  A    between atoms: _377  and  _380
REMARK  158  A    between atoms: _383  and  _385
REMARK  159  A    between atoms: _385  and  _386
REMARK  160  A    between atoms: _385  and  _388
REMARK  161  A    between atoms: _388  and  _389
REMARK  162  A    between atoms: _389  and  _390
REMARK  163  A    between atoms: _390  and  _391
REMARK  164  A    between atoms: _391  and  _392
REMARK  165  A    between atoms: _396  and  _398
REMARK  166  A    between atoms: _398  and  _399
REMARK  167  A    between atoms: _398  and  _401
REMARK  168  A    between atoms: _401  and  _402
REMARK  169  A    between atoms: _402  and  _403
REMARK  170  A    between atoms: _405  and  _407
REMARK  171  A    between atoms: _407  and  _408
REMARK  172  A    between atoms: _407  and  _410
REMARK  173  A    between atoms: _410  and  _411
REMARK  174  A    between atoms: _414  and  _416
REMARK  175  A    between atoms: _416  and  _417
REMARK  176  A    between atoms: _419  and  _421
REMARK  177  A    between atoms: _421  and  _422
REMARK  178  A    between atoms: _424  and  _426
REMARK  179  A    between atoms: _426  and  _427
REMARK  180  A    between atoms: _426  and  _429
REMARK  181  A    between atoms: _429  and  _430
REMARK  182  A    between atoms: _433  and  _435
REMARK  183  A    between atoms: _435  and  _436
REMARK  184  A    between atoms: _438  and  _440
REMARK  185  A    between atoms: _440  and  _441
REMARK  186  A    between atoms: _443  and  _445
REMARK  187  A    between atoms: _445  and  _446
REMARK  188  A    between atoms: _445  and  _448
REMARK  189  A    between atoms: _448  and  _449
REMARK  190  A    between atoms: _455  and  _457
REMARK  191  A    between atoms: _457  and  _458
REMARK  192  A    between atoms: _457  and  _460
REMARK  193  A    between atoms: _460  and  _461
REMARK  194  A    between atoms: _464  and  _466
REMARK  195  A    between atoms: _466  and  _467
REMARK  196  A    between atoms: _466  and  _469
REMARK  197  A    between atoms: _469  and  _470
REMARK  198  A    between atoms: _473  and  _475
REMARK  199  A    between atoms: _475  and  _476
REMARK  200  A    between atoms: _475  and  _478
REMARK  201  A    between atoms: _478  and  _479
REMARK  202  A    between atoms: _483  and  _484
REMARK  203  A    between atoms: _489  and  _491
REMARK  204  A    between atoms: _491  and  _492
REMARK  205  A    between atoms: _491  and  _494
REMARK  206  A    between atoms: _497  and  _499
REMARK  207  A    between atoms: _499  and  _500
REMARK  208  A    between atoms: _499  and  _502
REMARK  209  A    between atoms: _502  and  _503
REMARK  210  A    between atoms: _508  and  _510
REMARK  211  A    between atoms: _510  and  _511
REMARK  212  A    between atoms: _510  and  _513
REMARK  213  A    between atoms: _513  and  _514
REMARK  214  A    between atoms: _517  and  _519
REMARK  215  A    between atoms: _519  and  _520
REMARK  216  A    between atoms: _519  and  _522
REMARK  217  A    between atoms: _522  and  _523
REMARK  218  A    between atoms: _526  and  _528
REMARK  219  A    between atoms: _528  and  _529
REMARK  220  A    between atoms: _531  and  _533
REMARK  221  A    between atoms: _533  and  _534
REMARK  222  A    between atoms: _533  and  _536
REMARK  223  A    between atoms: _536  and  _537
REMARK  224  A    between atoms: _537  and  _538
REMARK  225  A    between atoms: _538  and  _539
REMARK  226  A    between atoms: _548  and  _550
REMARK  227  A    between atoms: _550  and  _551
REMARK  228  A    between atoms: _550  and  _553
REMARK  229  A    between atoms: _553  and  _554
REMARK                            x       y       z     vdW  Elec       q    Type
REMARK                         _______ _______ _______ _____ _____    ______ ____
ROOT
ATOM      1  O   HOH     1      20.258  36.282  18.351  0.00  0.00    +0.000 OA
ENDROOT
TORSDOF 0
REMARK  Name = ../refined-set-2016/3mxe/3mxe_pocket.pdb
REMARK  229 active torsions:
REMARK  status: ('A' for Active; 'I' for Inactive)
REMARK    1  A    between atoms: _1  and  _3
REMARK    2  A    between atoms: _3  and  _4
REMARK    3  A    between atoms: _3  and  _6
REMARK    4  A    between atoms: _6  and  _7
REMARK    5  A    between atoms: _7  and  _8
REMARK    6  A    between atoms: _8  and  _9
REMARK    7  A    between atoms: _18  and  _20
REMARK    8  A    between atoms: _20  and  _21
REMARK    9  A    between atoms: _20  and  _23
REMARK   10  A    between atoms: _23  and  _24
REMARK   11  A    between atoms: _27  and  _29
REMARK   12  A    between atoms: _29  and  _30
REMARK   13  A    between atoms: _29  and  _32
REMARK   14  A    between atoms: _32  and  _33
REMARK   15  A    between atoms: _36  and  _38
REMARK   16  A    between atoms: _38  and  _39
REMARK   17  A    between atoms: _38  and  _41
REMARK   18  A    between atoms: _41  and  _42
REMARK   19  A    between atoms: _45  and  _47
REMARK   20  A    between atoms: _47  and  _48
REMARK   21  A    between atoms: _47  and  _50
REMARK   22  A    between atoms: _50  and  _51
REMARK   23  A    between atoms: _54  and  _56
REMARK   24  A    between atoms: _56  and  _57
REMARK   25  A    between atoms: _59  and  _61
REMARK   26  A    between atoms: _61  and  _62
REMARK   27  A    between atoms: _65  and  _67
REMARK   28  A    between atoms: _67  and  _68
REMARK   29  A    between atoms: _67  and  _70
REMARK   30  A    between atoms: _70  and  _71
REMARK   31  A    between atoms: _74  and  _76
REMARK   32  A    between atoms: _76  and  _77
REMARK   33  A    between atoms: _76  and  _79
REMARK   34  A    between atoms: _79  and  _80
REMARK   35  A    between atoms: _83  and  _85
REMARK   36  A    between atoms: _85  and  _86
REMARK   37  A    between atoms: _85  and  _88
REMARK   38  A    between atoms: _88  and  _89
REMARK   39  A    between atoms: _92  and  _94
REMARK   40  A    between atoms: _94  and  _95
REMARK   41  A    between atoms: _94  and  _97
REMARK   42  A    between atoms: _100  and  _102
REMARK   43  A    between atoms: _102  and  _103
REMARK   44  A    between atoms: _102  and  _105
REMARK   45  A    between atoms: _105  and  _106
REMARK   46  A    between atoms: _106  and  _107
REMARK   47  A    between atoms: _107  and  _108
REMARK   48  A    between atoms: _108  and  _109
REMARK   49  A    between atoms: _113  and  _115
REMARK   50  A    between atoms: _115  and  _116
REMARK   51  A    between atoms: _115  and  _118
REMARK   52  A    between atoms: _118  and  _119
REMARK   53  A    between atoms: _119  and  _120
REMARK   54  A    between atoms: _122  and  _124
REMARK   55  A    between atoms: _124  and  _125
REMARK   56  A    between atoms: _124  and  _127
REMARK   57  A    between atoms: _127  and  _128
REMARK   58  A    between atoms: _131  and  _133
REMARK   59  A    between atoms: _133  and  _134
REMARK   60  A    between atoms: _136  and  _138
REMARK   61  A    between atoms: _138  and  _139
REMARK   62  A    between atoms: _141  and  _143
REMARK   63  A    between atoms: _143  and  _144
REMARK   64  A    between atoms: _143  and  _146
REMARK   65  A    between atoms: _146  and  _147
REMARK   66  A    between atoms: _150  and  _152
REMARK   67  A    between atoms: _152  and  _153
REMARK   68  A    between atoms: _155  and  _157
REMARK   69  A    between atoms: _157  and  _158
REMARK   70  A    between atoms: _160  and  _162
REMARK   71  A    between atoms: _162  and  _163
REMARK   72  A    between atoms: _162  and  _165
REMARK   73  A    between atoms: _165  and  _166
REMARK   74  A    between atoms: _172  and  _174
REMARK   75  A    between atoms: _174  and  _175
REMARK   76  A    between atoms: _174  and  _177
REMARK   77  A    between atoms: _177  and  _178
REMARK   78  A    between atoms: _181  and  _183
REMARK   79  A    between atoms: _183  and  _184
REMARK   80  A    between atoms: _183  and  _186
REMARK   81  A    between atoms: _189  and  _191
REMARK   82  A    between atoms: _191  and  _192
REMARK   83  A    between atoms: _191  and  _194
REMARK   84  A    between atoms: _194  and  _195
REMARK   85  A    between atoms: _198  and  _200
REMARK   86  A    between atoms: _200  and  _201
REMARK   87  A    between atoms: _200  and  _203
REMARK   88  A    between atoms: _203  and  _204
REMARK   89  A    between atoms: _208  and  _209
REMARK   90  A    between atoms: _214  and  _216
REMARK   91  A    between atoms: _216  and  _217
REMARK   92  A    between atoms: _216  and  _219
REMARK   93  A    between atoms: _222  and  _224
REMARK   94  A    between atoms: _224  and  _225
REMARK   95  A    between atoms: _224  and  _227
REMARK   96  A    between atoms: _227  and  _228
REMARK   97  A    between atoms: _233  and  _235
REMARK   98  A    between atoms: _235  and  _236
REMARK   99  A    between atoms: _235  and  _238
REMARK  100  A    between atoms: _238  and  _239
REMARK  101  A    between atoms: _242  and  _244
REMARK  102  A    between atoms: _244  and  _245
REMARK  103  A    between atoms: _244  and  _247
REMARK  104  A    between atoms: _247  and  _248
REMARK  105  A    between atoms: _251  and  _253
REMARK  106  A    between atoms: _253  and  _254
REMARK  107  A    between atoms: _256  and  _258
REMARK  108  A    between atoms: _258  and  _259
REMARK  109  A    between atoms: _258  and  _261
REMARK  110  A    between atoms: _261  and  _262
REMARK  111  A    between atoms: _262  and  _263
REMARK  112  A    between atoms: _263  and  _264
REMARK  113  A    between atoms: _273  and  _275
REMARK  114  A    between atoms: _275  and  _276
REMARK  115  A    between atoms: _275  and  _278
REMARK  116  A    between atoms: _278  and  _279
REMARK  117  A    between atoms: _284  and  _286
REMARK  118  A    between atoms: _286  and  _287
REMARK  119  A    between atoms: _286  and  _289
REMARK  120  A    between atoms: _289  and  _290
REMARK  121  A    between atoms: _290  and  _291
REMARK  122  A    between atoms: _291  and  _292
REMARK  123  A    between atoms: _301  and  _303
REMARK  124  A    between atoms: _303  and  _304
REMARK  125  A    between atoms: _303  and  _306
REMARK  126  A    between atoms: _306  and  _307
REMARK  127  A    between atoms: _310  and  _312
REMARK  128  A    between atoms: _312  and  _313
REMARK  129  A    between atoms: _312  and  _315
REMARK  130  A    between atoms: _315  and  _316
REMARK  131  A    between atoms: _319  and  _321
REMARK  132  A    between atoms: _321  and  _322
REMARK  133  A    between atoms: _321  and  _324
REMARK  134  A    between atoms: _324  and  _325
REMARK  135  A    between atoms: _328  and  _330
REMARK  136  A    between atoms: _330  and  _331
REMARK  137  A    between atoms: _330  and  _333
REMARK  138  A    between atoms: _333  and  _334
REMARK  139  A    between atoms: _337  and  _339
REMARK  140  A    between atoms: _339  and  _340
REMARK  141  A    between atoms: _342  and  _344
REMARK  142  A    between atoms: _344  and  _345
REMARK  143  A    between atoms: _348  and  _350
REMARK  144  A    between atoms: _350  and  _351
REMARK  145  A    between atoms: _350  and  _353
REMARK  146  A    between atoms: _353  and  _354
REMARK  147  A    between atoms: _357  and  _359
REMARK  148  A    between atoms: _359  and  _360
REMARK  149  A    between atoms: _359  and  _362
REMARK  150  A    between atoms: _362  and  _363
REMARK  151  A    between atoms: _366  and  _368
REMARK  152  A    between atoms: _368  and  _369
REMARK  153  A    between atoms: _368  and  _371
REMARK  154  A    between atoms: _371  and  _372
REMARK  155  A    between atoms: _375  and  _377
REMARK  156  A    between atoms: _377  and  _378
REMARK  157  A    between atoms: _377  and  _380
REMARK  158  A    between atoms: _383  and  _385
REMARK  159  A    between atoms: _385  and  _386
REMARK  160  A    between atoms: _385  and  _388
REMARK  161  A    between atoms: _388  and  _389
REMARK  162  A    between atoms: _389  and  _390
REMARK  163  A    between atoms: _390  and  _391
REMARK  164  A    between atoms: _391  and  _392
REMARK  165  A    between atoms: _396  and  _398
REMARK  166  A    between atoms: _398  and  _399
REMARK  167  A    between atoms: _398  and  _401
REMARK  168  A    between atoms: _401  and  _402
REMARK  169  A    between atoms: _402  and  _403
REMARK  170  A    between atoms: _405  and  _407
REMARK  171  A    between atoms: _407  and  _408
REMARK  172  A    between atoms: _407  and  _410
REMARK  173  A    between atoms: _410  and  _411
REMARK  174  A    between atoms: _414  and  _416
REMARK  175  A    between atoms: _416  and  _417
REMARK  176  A    between atoms: _419  and  _421
REMARK  177  A    between atoms: _421  and  _422
REMARK  178  A    between atoms: _424  and  _426
REMARK  179  A    between atoms: _426  and  _427
REMARK  180  A    between atoms: _426  and  _429
REMARK  181  A    between atoms: _429  and  _430
REMARK  182  A    between atoms: _433  and  _435
REMARK  183  A    between atoms: _435  and  _436
REMARK  184  A    between atoms: _438  and  _440
REMARK  185  A    between atoms: _440  and  _441
REMARK  186  A    between atoms: _443  and  _445
REMARK  187  A    between atoms: _445  and  _446
REMARK  188  A    between atoms: _445  and  _448
REMARK  189  A    between atoms: _448  and  _449
REMARK  190  A    between atoms: _455  and  _457
REMARK  191  A    between atoms: _457  and  _458
REMARK  192  A    between atoms: _457  and  _460
REMARK  193  A    between atoms: _460  and  _461
REMARK  194  A    between atoms: _464  and  _466
REMARK  195  A    between atoms: _466  and  _467
REMARK  196  A    between atoms: _466  and  _469
REMARK  197  A    between atoms: _469  and  _470
REMARK  198  A    between atoms: _473  and  _475
REMARK  199  A    between atoms: _475  and  _476
REMARK  200  A    between atoms: _475  and  _478
REMARK  201  A    between atoms: _478  and  _479
REMARK  202  A    between atoms: _483  and  _484
REMARK  203  A    between atoms: _489  and  _491
REMARK  204  A    between atoms: _491  and  _492
REMARK  205  A    between atoms: _491  and  _494
REMARK  206  A    between atoms: _497  and  _499
REMARK  207  A    between atoms: _499  and  _500
REMARK  208  A    between atoms: _499  and  _502
REMARK  209  A    between atoms: _502  and  _503
REMARK  210  A    between atoms: _508  and  _510
REMARK  211  A    between atoms: _510  and  _511
REMARK  212  A    between atoms: _510  and  _513
REMARK  213  A    between atoms: _513  and  _514
REMARK  214  A    between atoms: _517  and  _519
REMARK  215  A    between atoms: _519  and  _520
REMARK  216  A    between atoms: _519  and  _522
REMARK  217  A    between atoms: _522  and  _523
REMARK  218  A    between atoms: _526  and  _528
REMARK  219  A    between atoms: _528  and  _529
REMARK  220  A    between atoms: _531  and  _533
REMARK  221  A    between atoms: _533  and  _534
REMARK  222  A    between atoms: _533  and  _536
REMARK  223  A    between atoms: _536  and  _537
REMARK  224  A    between atoms: _537  and  _538
REMARK  225  A    between atoms: _538  and  _539
REMARK  226  A    between atoms: _548  and  _550
REMARK  227  A    between atoms: _550  and  _551
REMARK  228  A    between atoms: _550  and  _553
REMARK  229  A    between atoms: _553  and  _554
REMARK                            x       y       z     vdW  Elec       q    Type
REMARK                         _______ _______ _______ _____ _____    ______ ____
ROOT
ATOM      1  O   HOH     1      18.952  21.123   5.764  0.00  0.00    +0.000 OA
ENDROOT
TORSDOF 0
REMARK  Name = ../refined-set-2016/3mxe/3mxe_pocket.pdb
REMARK  229 active torsions:
REMARK  status: ('A' for Active; 'I' for Inactive)
REMARK    1  A    between atoms: _1  and  _3
REMARK    2  A    between atoms: _3  and  _4
REMARK    3  A    between atoms: _3  and  _6
REMARK    4  A    between atoms: _6  and  _7
REMARK    5  A    between atoms: _7  and  _8
REMARK    6  A    between atoms: _8  and  _9
REMARK    7  A    between atoms: _18  and  _20
REMARK    8  A    between atoms: _20  and  _21
REMARK    9  A    between atoms: _20  and  _23
REMARK   10  A    between atoms: _23  and  _24
REMARK   11  A    between atoms: _27  and  _29
REMARK   12  A    between atoms: _29  and  _30
REMARK   13  A    between atoms: _29  and  _32
REMARK   14  A    between atoms: _32  and  _33
REMARK   15  A    between atoms: _36  and  _38
REMARK   16  A    between atoms: _38  and  _39
REMARK   17  A    between atoms: _38  and  _41
REMARK   18  A    between atoms: _41  and  _42
REMARK   19  A    between atoms: _45  and  _47
REMARK   20  A    between atoms: _47  and  _48
REMARK   21  A    between atoms: _47  and  _50
REMARK   22  A    between atoms: _50  and  _51
REMARK   23  A    between atoms: _54  and  _56
REMARK   24  A    between atoms: _56  and  _57
REMARK   25  A    between atoms: _59  and  _61
REMARK   26  A    between atoms: _61  and  _62
REMARK   27  A    between atoms: _65  and  _67
REMARK   28  A    between atoms: _67  and  _68
REMARK   29  A    between atoms: _67  and  _70
REMARK   30  A    between atoms: _70  and  _71
REMARK   31  A    between atoms: _74  and  _76
REMARK   32  A    between atoms: _76  and  _77
REMARK   33  A    between atoms: _76  and  _79
REMARK   34  A    between atoms: _79  and  _80
REMARK   35  A    between atoms: _83  and  _85
REMARK   36  A    between atoms: _85  and  _86
REMARK   37  A    between atoms: _85  and  _88
REMARK   38  A    between atoms: _88  and  _89
REMARK   39  A    between atoms: _92  and  _94
REMARK   40  A    between atoms: _94  and  _95
REMARK   41  A    between atoms: _94  and  _97
REMARK   42  A    between atoms: _100  and  _102
REMARK   43  A    between atoms: _102  and  _103
REMARK   44  A    between atoms: _102  and  _105
REMARK   45  A    between atoms: _105  and  _106
REMARK   46  A    between atoms: _106  and  _107
REMARK   47  A    between atoms: _107  and  _108
REMARK   48  A    between atoms: _108  and  _109
REMARK   49  A    between atoms: _113  and  _115
REMARK   50  A    between atoms: _115  and  _116
REMARK   51  A    between atoms: _115  and  _118
REMARK   52  A    between atoms: _118  and  _119
REMARK   53  A    between atoms: _119  and  _120
REMARK   54  A    between atoms: _122  and  _124
REMARK   55  A    between atoms: _124  and  _125
REMARK   56  A    between atoms: _124  and  _127
REMARK   57  A    between atoms: _127  and  _128
REMARK   58  A    between atoms: _131  and  _133
REMARK   59  A    between atoms: _133  and  _134
REMARK   60  A    between atoms: _136  and  _138
REMARK   61  A    between atoms: _138  and  _139
REMARK   62  A    between atoms: _141  and  _143
REMARK   63  A    between atoms: _143  and  _144
REMARK   64  A    between atoms: _143  and  _146
REMARK   65  A    between atoms: _146  and  _147
REMARK   66  A    between atoms: _150  and  _152
REMARK   67  A    between atoms: _152  and  _153
REMARK   68  A    between atoms: _155  and  _157
REMARK   69  A    between atoms: _157  and  _158
REMARK   70  A    between atoms: _160  and  _162
REMARK   71  A    between atoms: _162  and  _163
REMARK   72  A    between atoms: _162  and  _165
REMARK   73  A    between atoms: _165  and  _166
REMARK   74  A    between atoms: _172  and  _174
REMARK   75  A    between atoms: _174  and  _175
REMARK   76  A    between atoms: _174  and  _177
REMARK   77  A    between atoms: _177  and  _178
REMARK   78  A    between atoms: _181  and  _183
REMARK   79  A    between atoms: _183  and  _184
REMARK   80  A    between atoms: _183  and  _186
REMARK   81  A    between atoms: _189  and  _191
REMARK   82  A    between atoms: _191  and  _192
REMARK   83  A    between atoms: _191  and  _194
REMARK   84  A    between atoms: _194  and  _195
REMARK   85  A    between atoms: _198  and  _200
REMARK   86  A    between atoms: _200  and  _201
REMARK   87  A    between atoms: _200  and  _203
REMARK   88  A    between atoms: _203  and  _204
REMARK   89  A    between atoms: _208  and  _209
REMARK   90  A    between atoms: _214  and  _216
REMARK   91  A    between atoms: _216  and  _217
REMARK   92  A    between atoms: _216  and  _219
REMARK   93  A    between atoms: _222  and  _224
REMARK   94  A    between atoms: _224  and  _225
REMARK   95  A    between atoms: _224  and  _227
REMARK   96  A    between atoms: _227  and  _228
REMARK   97  A    between atoms: _233  and  _235
REMARK   98  A    between atoms: _235  and  _236
REMARK   99  A    between atoms: _235  and  _238
REMARK  100  A    between atoms: _238  and  _239
REMARK  101  A    between atoms: _242  and  _244
REMARK  102  A    between atoms: _244  and  _245
REMARK  103  A    between atoms: _244  and  _247
REMARK  104  A    between atoms: _247  and  _248
REMARK  105  A    between atoms: _251  and  _253
REMARK  106  A    between atoms: _253  and  _254
REMARK  107  A    between atoms: _256  and  _258
REMARK  108  A    between atoms: _258  and  _259
REMARK  109  A    between atoms: _258  and  _261
REMARK  110  A    between atoms: _261  and  _262
REMARK  111  A    between atoms: _262  and  _263
REMARK  112  A    between atoms: _263  and  _264
REMARK  113  A    between atoms: _273  and  _275
REMARK  114  A    between atoms: _275  and  _276
REMARK  115  A    between atoms: _275  and  _278
REMARK  116  A    between atoms: _278  and  _279
REMARK  117  A    between atoms: _284  and  _286
REMARK  118  A    between atoms: _286  and  _287
REMARK  119  A    between atoms: _286  and  _289
REMARK  120  A    between atoms: _289  and  _290
REMARK  121  A    between atoms: _290  and  _291
REMARK  122  A    between atoms: _291  and  _292
REMARK  123  A    between atoms: _301  and  _303
REMARK  124  A    between atoms: _303  and  _304
REMARK  125  A    between atoms: _303  and  _306
REMARK  126  A    between atoms: _306  and  _307
REMARK  127  A    between atoms: _310  and  _312
REMARK  128  A    between atoms: _312  and  _313
REMARK  129  A    between atoms: _312  and  _315
REMARK  130  A    between atoms: _315  and  _316
REMARK  131  A    between atoms: _319  and  _321
REMARK  132  A    between atoms: _321  and  _322
REMARK  133  A    between atoms: _321  and  _324
REMARK  134  A    between atoms: _324  and  _325
REMARK  135  A    between atoms: _328  and  _330
REMARK  136  A    between atoms: _330  and  _331
REMARK  137  A    between atoms: _330  and  _333
REMARK  138  A    between atoms: _333  and  _334
REMARK  139  A    between atoms: _337  and  _339
REMARK  140  A    between atoms: _339  and  _340
REMARK  141  A    between atoms: _342  and  _344
REMARK  142  A    between atoms: _344  and  _345
REMARK  143  A    between atoms: _348  and  _350
REMARK  144  A    between atoms: _350  and  _351
REMARK  145  A    between atoms: _350  and  _353
REMARK  146  A    between atoms: _353  and  _354
REMARK  147  A    between atoms: _357  and  _359
REMARK  148  A    between atoms: _359  and  _360
REMARK  149  A    between atoms: _359  and  _362
REMARK  150  A    between atoms: _362  and  _363
REMARK  151  A    between atoms: _366  and  _368
REMARK  152  A    between atoms: _368  and  _369
REMARK  153  A    between atoms: _368  and  _371
REMARK  154  A    between atoms: _371  and  _372
REMARK  155  A    between atoms: _375  and  _377
REMARK  156  A    between atoms: _377  and  _378
REMARK  157  A    between atoms: _377  and  _380
REMARK  158  A    between atoms: _383  and  _385
REMARK  159  A    between atoms: _385  and  _386
REMARK  160  A    between atoms: _385  and  _388
REMARK  161  A    between atoms: _388  and  _389
REMARK  162  A    between atoms: _389  and  _390
REMARK  163  A    between atoms: _390  and  _391
REMARK  164  A    between atoms: _391  and  _392
REMARK  165  A    between atoms: _396  and  _398
REMARK  166  A    between atoms: _398  and  _399
REMARK  167  A    between atoms: _398  and  _401
REMARK  168  A    between atoms: _401  and  _402
REMARK  169  A    between atoms: _402  and  _403
REMARK  170  A    between atoms: _405  and  _407
REMARK  171  A    between atoms: _407  and  _408
REMARK  172  A    between atoms: _407  and  _410
REMARK  173  A    between atoms: _410  and  _411
REMARK  174  A    between atoms: _414  and  _416
REMARK  175  A    between atoms: _416  and  _417
REMARK  176  A    between atoms: _419  and  _421
REMARK  177  A    between atoms: _421  and  _422
REMARK  178  A    between atoms: _424  and  _426
REMARK  179  A    between atoms: _426  and  _427
REMARK  180  A    between atoms: _426  and  _429
REMARK  181  A    between atoms: _429  and  _430
REMARK  182  A    between atoms: _433  and  _435
REMARK  183  A    between atoms: _435  and  _436
REMARK  184  A    between atoms: _438  and  _440
REMARK  185  A    between atoms: _440  and  _441
REMARK  186  A    between atoms: _443  and  _445
REMARK  187  A    between atoms: _445  and  _446
REMARK  188  A    between atoms: _445  and  _448
REMARK  189  A    between atoms: _448  and  _449
REMARK  190  A    between atoms: _455  and  _457
REMARK  191  A    between atoms: _457  and  _458
REMARK  192  A    between atoms: _457  and  _460
REMARK  193  A    between atoms: _460  and  _461
REMARK  194  A    between atoms: _464  and  _466
REMARK  195  A    between atoms: _466  and  _467
REMARK  196  A    between atoms: _466  and  _469
REMARK  197  A    between atoms: _469  and  _470
REMARK  198  A    between atoms: _473  and  _475
REMARK  199  A    between atoms: _475  and  _476
REMARK  200  A    between atoms: _475  and  _478
REMARK  201  A    between atoms: _478  and  _479
REMARK  202  A    between atoms: _483  and  _484
REMARK  203  A    between atoms: _489  and  _491
REMARK  204  A    between atoms: _491  and  _492
REMARK  205  A    between atoms: _491  and  _494
REMARK  206  A    between atoms: _497  and  _499
REMARK  207  A    between atoms: _499  and  _500
REMARK  208  A    between atoms: _499  and  _502
REMARK  209  A    between atoms: _502  and  _503
REMARK  210  A    between atoms: _508  and  _510
REMARK  211  A    between atoms: _510  and  _511
REMARK  212  A    between atoms: _510  and  _513
REMARK  213  A    between atoms: _513  and  _514
REMARK  214  A    between atoms: _517  and  _519
REMARK  215  A    between atoms: _519  and  _520
REMARK  216  A    between atoms: _519  and  _522
REMARK  217  A    between atoms: _522  and  _523
REMARK  218  A    between atoms: _526  and  _528
REMARK  219  A    between atoms: _528  and  _529
REMARK  220  A    between atoms: _531  and  _533
REMARK  221  A    between atoms: _533  and  _534
REMARK  222  A    between atoms: _533  and  _536
REMARK  223  A    between atoms: _536  and  _537
REMARK  224  A    between atoms: _537  and  _538
REMARK  225  A    between atoms: _538  and  _539
REMARK  226  A    between atoms: _548  and  _550
REMARK  227  A    between atoms: _550  and  _551
REMARK  228  A    between atoms: _550  and  _553
REMARK  229  A    between atoms: _553  and  _554
REMARK                            x       y       z     vdW  Elec       q    Type
REMARK                         _______ _______ _______ _____ _____    ______ ____
ROOT
ATOM      1  O   HOH     1      15.140  20.771  11.052  0.00  0.00    +0.000 OA
ENDROOT
TORSDOF 0
REMARK  Name = ../refined-set-2016/3mxe/3mxe_pocket.pdb
REMARK  229 active torsions:
REMARK  status: ('A' for Active; 'I' for Inactive)
REMARK    1  A    between atoms: _1  and  _3
REMARK    2  A    between atoms: _3  and  _4
REMARK    3  A    between atoms: _3  and  _6
REMARK    4  A    between atoms: _6  and  _7
REMARK    5  A    between atoms: _7  and  _8
REMARK    6  A    between atoms: _8  and  _9
REMARK    7  A    between atoms: _18  and  _20
REMARK    8  A    between atoms: _20  and  _21
REMARK    9  A    between atoms: _20  and  _23
REMARK   10  A    between atoms: _23  and  _24
REMARK   11  A    between atoms: _27  and  _29
REMARK   12  A    between atoms: _29  and  _30
REMARK   13  A    between atoms: _29  and  _32
REMARK   14  A    between atoms: _32  and  _33
REMARK   15  A    between atoms: _36  and  _38
REMARK   16  A    between atoms: _38  and  _39
REMARK   17  A    between atoms: _38  and  _41
REMARK   18  A    between atoms: _41  and  _42
REMARK   19  A    between atoms: _45  and  _47
REMARK   20  A    between atoms: _47  and  _48
REMARK   21  A    between atoms: _47  and  _50
REMARK   22  A    between atoms: _50  and  _51
REMARK   23  A    between atoms: _54  and  _56
REMARK   24  A    between atoms: _56  and  _57
REMARK   25  A    between atoms: _59  and  _61
REMARK   26  A    between atoms: _61  and  _62
REMARK   27  A    between atoms: _65  and  _67
REMARK   28  A    between atoms: _67  and  _68
REMARK   29  A    between atoms: _67  and  _70
REMARK   30  A    between atoms: _70  and  _71
REMARK   31  A    between atoms: _74  and  _76
REMARK   32  A    between atoms: _76  and  _77
REMARK   33  A    between atoms: _76  and  _79
REMARK   34  A    between atoms: _79  and  _80
REMARK   35  A    between atoms: _83  and  _85
REMARK   36  A    between atoms: _85  and  _86
REMARK   37  A    between atoms: _85  and  _88
REMARK   38  A    between atoms: _88  and  _89
REMARK   39  A    between atoms: _92  and  _94
REMARK   40  A    between atoms: _94  and  _95
REMARK   41  A    between atoms: _94  and  _97
REMARK   42  A    between atoms: _100  and  _102
REMARK   43  A    between atoms: _102  and  _103
REMARK   44  A    between atoms: _102  and  _105
REMARK   45  A    between atoms: _105  and  _106
REMARK   46  A    between atoms: _106  and  _107
REMARK   47  A    between atoms: _107  and  _108
REMARK   48  A    between atoms: _108  and  _109
REMARK   49  A    between atoms: _113  and  _115
REMARK   50  A    between atoms: _115  and  _116
REMARK   51  A    between atoms: _115  and  _118
REMARK   52  A    between atoms: _118  and  _119
REMARK   53  A    between atoms: _119  and  _120
REMARK   54  A    between atoms: _122  and  _124
REMARK   55  A    between atoms: _124  and  _125
REMARK   56  A    between atoms: _124  and  _127
REMARK   57  A    between atoms: _127  and  _128
REMARK   58  A    between atoms: _131  and  _133
REMARK   59  A    between atoms: _133  and  _134
REMARK   60  A    between atoms: _136  and  _138
REMARK   61  A    between atoms: _138  and  _139
REMARK   62  A    between atoms: _141  and  _143
REMARK   63  A    between atoms: _143  and  _144
REMARK   64  A    between atoms: _143  and  _146
REMARK   65  A    between atoms: _146  and  _147
REMARK   66  A    between atoms: _150  and  _152
REMARK   67  A    between atoms: _152  and  _153
REMARK   68  A    between atoms: _155  and  _157
REMARK   69  A    between atoms: _157  and  _158
REMARK   70  A    between atoms: _160  and  _162
REMARK   71  A    between atoms: _162  and  _163
REMARK   72  A    between atoms: _162  and  _165
REMARK   73  A    between atoms: _165  and  _166
REMARK   74  A    between atoms: _172  and  _174
REMARK   75  A    between atoms: _174  and  _175
REMARK   76  A    between atoms: _174  and  _177
REMARK   77  A    between atoms: _177  and  _178
REMARK   78  A    between atoms: _181  and  _183
REMARK   79  A    between atoms: _183  and  _184
REMARK   80  A    between atoms: _183  and  _186
REMARK   81  A    between atoms: _189  and  _191
REMARK   82  A    between atoms: _191  and  _192
REMARK   83  A    between atoms: _191  and  _194
REMARK   84  A    between atoms: _194  and  _195
REMARK   85  A    between atoms: _198  and  _200
REMARK   86  A    between atoms: _200  and  _201
REMARK   87  A    between atoms: _200  and  _203
REMARK   88  A    between atoms: _203  and  _204
REMARK   89  A    between atoms: _208  and  _209
REMARK   90  A    between atoms: _214  and  _216
REMARK   91  A    between atoms: _216  and  _217
REMARK   92  A    between atoms: _216  and  _219
REMARK   93  A    between atoms: _222  and  _224
REMARK   94  A    between atoms: _224  and  _225
REMARK   95  A    between atoms: _224  and  _227
REMARK   96  A    between atoms: _227  and  _228
REMARK   97  A    between atoms: _233  and  _235
REMARK   98  A    between atoms: _235  and  _236
REMARK   99  A    between atoms: _235  and  _238
REMARK  100  A    between atoms: _238  and  _239
REMARK  101  A    between atoms: _242  and  _244
REMARK  102  A    between atoms: _244  and  _245
REMARK  103  A    between atoms: _244  and  _247
REMARK  104  A    between atoms: _247  and  _248
REMARK  105  A    between atoms: _251  and  _253
REMARK  106  A    between atoms: _253  and  _254
REMARK  107  A    between atoms: _256  and  _258
REMARK  108  A    between atoms: _258  and  _259
REMARK  109  A    between atoms: _258  and  _261
REMARK  110  A    between atoms: _261  and  _262
REMARK  111  A    between atoms: _262  and  _263
REMARK  112  A    between atoms: _263  and  _264
REMARK  113  A    between atoms: _273  and  _275
REMARK  114  A    between atoms: _275  and  _276
REMARK  115  A    between atoms: _275  and  _278
REMARK  116  A    between atoms: _278  and  _279
REMARK  117  A    between atoms: _284  and  _286
REMARK  118  A    between atoms: _286  and  _287
REMARK  119  A    between atoms: _286  and  _289
REMARK  120  A    between atoms: _289  and  _290
REMARK  121  A    between atoms: _290  and  _291
REMARK  122  A    between atoms: _291  and  _292
REMARK  123  A    between atoms: _301  and  _303
REMARK  124  A    between atoms: _303  and  _304
REMARK  125  A    between atoms: _303  and  _306
REMARK  126  A    between atoms: _306  and  _307
REMARK  127  A    between atoms: _310  and  _312
REMARK  128  A    between atoms: _312  and  _313
REMARK  129  A    between atoms: _312  and  _315
REMARK  130  A    between atoms: _315  and  _316
REMARK  131  A    between atoms: _319  and  _321
REMARK  132  A    between atoms: _321  and  _322
REMARK  133  A    between atoms: _321  and  _324
REMARK  134  A    between atoms: _324  and  _325
REMARK  135  A    between atoms: _328  and  _330
REMARK  136  A    between atoms: _330  and  _331
REMARK  137  A    between atoms: _330  and  _333
REMARK  138  A    between atoms: _333  and  _334
REMARK  139  A    between atoms: _337  and  _339
REMARK  140  A    between atoms: _339  and  _340
REMARK  141  A    between atoms: _342  and  _344
REMARK  142  A    between atoms: _344  and  _345
REMARK  143  A    between atoms: _348  and  _350
REMARK  144  A    between atoms: _350  and  _351
REMARK  145  A    between atoms: _350  and  _353
REMARK  146  A    between atoms: _353  and  _354
REMARK  147  A    between atoms: _357  and  _359
REMARK  148  A    between atoms: _359  and  _360
REMARK  149  A    between atoms: _359  and  _362
REMARK  150  A    between atoms: _362  and  _363
REMARK  151  A    between atoms: _366  and  _368
REMARK  152  A    between atoms: _368  and  _369
REMARK  153  A    between atoms: _368  and  _371
REMARK  154  A    between atoms: _371  and  _372
REMARK  155  A    between atoms: _375  and  _377
REMARK  156  A    between atoms: _377  and  _378
REMARK  157  A    between atoms: _377  and  _380
REMARK  158  A    between atoms: _383  and  _385
REMARK  159  A    between atoms: _385  and  _386
REMARK  160  A    between atoms: _385  and  _388
REMARK  161  A    between atoms: _388  and  _389
REMARK  162  A    between atoms: _389  and  _390
REMARK  163  A    between atoms: _390  and  _391
REMARK  164  A    between atoms: _391  and  _392
REMARK  165  A    between atoms: _396  and  _398
REMARK  166  A    between atoms: _398  and  _399
REMARK  167  A    between atoms: _398  and  _401
REMARK  168  A    between atoms: _401  and  _402
REMARK  169  A    between atoms: _402  and  _403
REMARK  170  A    between atoms: _405  and  _407
REMARK  171  A    between atoms: _407  and  _408
REMARK  172  A    between atoms: _407  and  _410
REMARK  173  A    between atoms: _410  and  _411
REMARK  174  A    between atoms: _414  and  _416
REMARK  175  A    between atoms: _416  and  _417
REMARK  176  A    between atoms: _419  and  _421
REMARK  177  A    between atoms: _421  and  _422
REMARK  178  A    between atoms: _424  and  _426
REMARK  179  A    between atoms: _426  and  _427
REMARK  180  A    between atoms: _426  and  _429
REMARK  181  A    between atoms: _429  and  _430
REMARK  182  A    between atoms: _433  and  _435
REMARK  183  A    between atoms: _435  and  _436
REMARK  184  A    between atoms: _438  and  _440
REMARK  185  A    between atoms: _440  and  _441
REMARK  186  A    between atoms: _443  and  _445
REMARK  187  A    between atoms: _445  and  _446
REMARK  188  A    between atoms: _445  and  _448
REMARK  189  A    between atoms: _448  and  _449
REMARK  190  A    between atoms: _455  and  _457
REMARK  191  A    between atoms: _457  and  _458
REMARK  192  A    between atoms: _457  and  _460
REMARK  193  A    between atoms: _460  and  _461
REMARK  194  A    between atoms: _464  and  _466
REMARK  195  A    between atoms: _466  and  _467
REMARK  196  A    between atoms: _466  and  _469
REMARK  197  A    between atoms: _469  and  _470
REMARK  198  A    between atoms: _473  and  _475
REMARK  199  A    between atoms: _475  and  _476
REMARK  200  A    between atoms: _475  and  _478
REMARK  201  A    between atoms: _478  and  _479
REMARK  202  A    between atoms: _483  and  _484
REMARK  203  A    between atoms: _489  and  _491
REMARK  204  A    between atoms: _491  and  _492
REMARK  205  A    between atoms: _491  and  _494
REMARK  206  A    between atoms: _497  and  _499
REMARK  207  A    between atoms: _499  and  _500
REMARK  208  A    between atoms: _499  and  _502
REMARK  209  A    between atoms: _502  and  _503
REMARK  210  A    between atoms: _508  and  _510
REMARK  211  A    between atoms: _510  and  _511
REMARK  212  A    between atoms: _510  and  _513
REMARK  213  A    between atoms: _513  and  _514
REMARK  214  A    between atoms: _517  and  _519
REMARK  215  A    between atoms: _519  and  _520
REMARK  216  A    between atoms: _519  and  _522
REMARK  217  A    between atoms: _522  and  _523
REMARK  218  A    between atoms: _526  and  _528
REMARK  219  A    between atoms: _528  and  _529
REMARK  220  A    between atoms: _531  and  _533
REMARK  221  A    between atoms: _533  and  _534
REMARK  222  A    between atoms: _533  and  _536
REMARK  223  A    between atoms: _536  and  _537
REMARK  224  A    between atoms: _537  and  _538
REMARK  225  A    between atoms: _538  and  _539
REMARK  226  A    between atoms: _548  and  _550
REMARK  227  A    between atoms: _550  and  _551
REMARK  228  A    between atoms: _550  and  _553
REMARK  229  A    between atoms: _553  and  _554
REMARK                            x       y       z     vdW  Elec       q    Type
REMARK                         _______ _______ _______ _____ _____    ______ ____
ROOT
ATOM      1  O   HOH     1      12.554  21.069  10.561  0.00  0.00    +0.000 OA
ENDROOT
TORSDOF 0
REMARK  Name = ../refined-set-2016/3mxe/3mxe_pocket.pdb
REMARK  229 active torsions:
REMARK  status: ('A' for Active; 'I' for Inactive)
REMARK    1  A    between atoms: _1  and  _3
REMARK    2  A    between atoms: _3  and  _4
REMARK    3  A    between atoms: _3  and  _6
REMARK    4  A    between atoms: _6  and  _7
REMARK    5  A    between atoms: _7  and  _8
REMARK    6  A    between atoms: _8  and  _9
REMARK    7  A    between atoms: _18  and  _20
REMARK    8  A    between atoms: _20  and  _21
REMARK    9  A    between atoms: _20  and  _23
REMARK   10  A    between atoms: _23  and  _24
REMARK   11  A    between atoms: _27  and  _29
REMARK   12  A    between atoms: _29  and  _30
REMARK   13  A    between atoms: _29  and  _32
REMARK   14  A    between atoms: _32  and  _33
REMARK   15  A    between atoms: _36  and  _38
REMARK   16  A    between atoms: _38  and  _39
REMARK   17  A    between atoms: _38  and  _41
REMARK   18  A    between atoms: _41  and  _42
REMARK   19  A    between atoms: _45  and  _47
REMARK   20  A    between atoms: _47  and  _48
REMARK   21  A    between atoms: _47  and  _50
REMARK   22  A    between atoms: _50  and  _51
REMARK   23  A    between atoms: _54  and  _56
REMARK   24  A    between atoms: _56  and  _57
REMARK   25  A    between atoms: _59  and  _61
REMARK   26  A    between atoms: _61  and  _62
REMARK   27  A    between atoms: _65  and  _67
REMARK   28  A    between atoms: _67  and  _68
REMARK   29  A    between atoms: _67  and  _70
REMARK   30  A    between atoms: _70  and  _71
REMARK   31  A    between atoms: _74  and  _76
REMARK   32  A    between atoms: _76  and  _77
REMARK   33  A    between atoms: _76  and  _79
REMARK   34  A    between atoms: _79  and  _80
REMARK   35  A    between atoms: _83  and  _85
REMARK   36  A    between atoms: _85  and  _86
REMARK   37  A    between atoms: _85  and  _88
REMARK   38  A    between atoms: _88  and  _89
REMARK   39  A    between atoms: _92  and  _94
REMARK   40  A    between atoms: _94  and  _95
REMARK   41  A    between atoms: _94  and  _97
REMARK   42  A    between atoms: _100  and  _102
REMARK   43  A    between atoms: _102  and  _103
REMARK   44  A    between atoms: _102  and  _105
REMARK   45  A    between atoms: _105  and  _106
REMARK   46  A    between atoms: _106  and  _107
REMARK   47  A    between atoms: _107  and  _108
REMARK   48  A    between atoms: _108  and  _109
REMARK   49  A    between atoms: _113  and  _115
REMARK   50  A    between atoms: _115  and  _116
REMARK   51  A    between atoms: _115  and  _118
REMARK   52  A    between atoms: _118  and  _119
REMARK   53  A    between atoms: _119  and  _120
REMARK   54  A    between atoms: _122  and  _124
REMARK   55  A    between atoms: _124  and  _125
REMARK   56  A    between atoms: _124  and  _127
REMARK   57  A    between atoms: _127  and  _128
REMARK   58  A    between atoms: _131  and  _133
REMARK   59  A    between atoms: _133  and  _134
REMARK   60  A    between atoms: _136  and  _138
REMARK   61  A    between atoms: _138  and  _139
REMARK   62  A    between atoms: _141  and  _143
REMARK   63  A    between atoms: _143  and  _144
REMARK   64  A    between atoms: _143  and  _146
REMARK   65  A    between atoms: _146  and  _147
REMARK   66  A    between atoms: _150  and  _152
REMARK   67  A    between atoms: _152  and  _153
REMARK   68  A    between atoms: _155  and  _157
REMARK   69  A    between atoms: _157  and  _158
REMARK   70  A    between atoms: _160  and  _162
REMARK   71  A    between atoms: _162  and  _163
REMARK   72  A    between atoms: _162  and  _165
REMARK   73  A    between atoms: _165  and  _166
REMARK   74  A    between atoms: _172  and  _174
REMARK   75  A    between atoms: _174  and  _175
REMARK   76  A    between atoms: _174  and  _177
REMARK   77  A    between atoms: _177  and  _178
REMARK   78  A    between atoms: _181  and  _183
REMARK   79  A    between atoms: _183  and  _184
REMARK   80  A    between atoms: _183  and  _186
REMARK   81  A    between atoms: _189  and  _191
REMARK   82  A    between atoms: _191  and  _192
REMARK   83  A    between atoms: _191  and  _194
REMARK   84  A    between atoms: _194  and  _195
REMARK   85  A    between atoms: _198  and  _200
REMARK   86  A    between atoms: _200  and  _201
REMARK   87  A    between atoms: _200  and  _203
REMARK   88  A    between atoms: _203  and  _204
REMARK   89  A    between atoms: _208  and  _209
REMARK   90  A    between atoms: _214  and  _216
REMARK   91  A    between atoms: _216  and  _217
REMARK   92  A    between atoms: _216  and  _219
REMARK   93  A    between atoms: _222  and  _224
REMARK   94  A    between atoms: _224  and  _225
REMARK   95  A    between atoms: _224  and  _227
REMARK   96  A    between atoms: _227  and  _228
REMARK   97  A    between atoms: _233  and  _235
REMARK   98  A    between atoms: _235  and  _236
REMARK   99  A    between atoms: _235  and  _238
REMARK  100  A    between atoms: _238  and  _239
REMARK  101  A    between atoms: _242  and  _244
REMARK  102  A    between atoms: _244  and  _245
REMARK  103  A    between atoms: _244  and  _247
REMARK  104  A    between atoms: _247  and  _248
REMARK  105  A    between atoms: _251  and  _253
REMARK  106  A    between atoms: _253  and  _254
REMARK  107  A    between atoms: _256  and  _258
REMARK  108  A    between atoms: _258  and  _259
REMARK  109  A    between atoms: _258  and  _261
REMARK  110  A    between atoms: _261  and  _262
REMARK  111  A    between atoms: _262  and  _263
REMARK  112  A    between atoms: _263  and  _264
REMARK  113  A    between atoms: _273  and  _275
REMARK  114  A    between atoms: _275  and  _276
REMARK  115  A    between atoms: _275  and  _278
REMARK  116  A    between atoms: _278  and  _279
REMARK  117  A    between atoms: _284  and  _286
REMARK  118  A    between atoms: _286  and  _287
REMARK  119  A    between atoms: _286  and  _289
REMARK  120  A    between atoms: _289  and  _290
REMARK  121  A    between atoms: _290  and  _291
REMARK  122  A    between atoms: _291  and  _292
REMARK  123  A    between atoms: _301  and  _303
REMARK  124  A    between atoms: _303  and  _304
REMARK  125  A    between atoms: _303  and  _306
REMARK  126  A    between atoms: _306  and  _307
REMARK  127  A    between atoms: _310  and  _312
REMARK  128  A    between atoms: _312  and  _313
REMARK  129  A    between atoms: _312  and  _315
REMARK  130  A    between atoms: _315  and  _316
REMARK  131  A    between atoms: _319  and  _321
REMARK  132  A    between atoms: _321  and  _322
REMARK  133  A    between atoms: _321  and  _324
REMARK  134  A    between atoms: _324  and  _325
REMARK  135  A    between atoms: _328  and  _330
REMARK  136  A    between atoms: _330  and  _331
REMARK  137  A    between atoms: _330  and  _333
REMARK  138  A    between atoms: _333  and  _334
REMARK  139  A    between atoms: _337  and  _339
REMARK  140  A    between atoms: _339  and  _340
REMARK  141  A    between atoms: _342  and  _344
REMARK  142  A    between atoms: _344  and  _345
REMARK  143  A    between atoms: _348  and  _350
REMARK  144  A    between atoms: _350  and  _351
REMARK  145  A    between atoms: _350  and  _353
REMARK  146  A    between atoms: _353  and  _354
REMARK  147  A    between atoms: _357  and  _359
REMARK  148  A    between atoms: _359  and  _360
REMARK  149  A    between atoms: _359  and  _362
REMARK  150  A    between atoms: _362  and  _363
REMARK  151  A    between atoms: _366  and  _368
REMARK  152  A    between atoms: _368  and  _369
REMARK  153  A    between atoms: _368  and  _371
REMARK  154  A    between atoms: _371  and  _372
REMARK  155  A    between atoms: _375  and  _377
REMARK  156  A    between atoms: _377  and  _378
REMARK  157  A    between atoms: _377  and  _380
REMARK  158  A    between atoms: _383  and  _385
REMARK  159  A    between atoms: _385  and  _386
REMARK  160  A    between atoms: _385  and  _388
REMARK  161  A    between atoms: _388  and  _389
REMARK  162  A    between atoms: _389  and  _390
REMARK  163  A    between atoms: _390  and  _391
REMARK  164  A    between atoms: _391  and  _392
REMARK  165  A    between atoms: _396  and  _398
REMARK  166  A    between atoms: _398  and  _399
REMARK  167  A    between atoms: _398  and  _401
REMARK  168  A    between atoms: _401  and  _402
REMARK  169  A    between atoms: _402  and  _403
REMARK  170  A    between atoms: _405  and  _407
REMARK  171  A    between atoms: _407  and  _408
REMARK  172  A    between atoms: _407  and  _410
REMARK  173  A    between atoms: _410  and  _411
REMARK  174  A    between atoms: _414  and  _416
REMARK  175  A    between atoms: _416  and  _417
REMARK  176  A    between atoms: _419  and  _421
REMARK  177  A    between atoms: _421  and  _422
REMARK  178  A    between atoms: _424  and  _426
REMARK  179  A    between atoms: _426  and  _427
REMARK  180  A    between atoms: _426  and  _429
REMARK  181  A    between atoms: _429  and  _430
REMARK  182  A    between atoms: _433  and  _435
REMARK  183  A    between atoms: _435  and  _436
REMARK  184  A    between atoms: _438  and  _440
REMARK  185  A    between atoms: _440  and  _441
REMARK  186  A    between atoms: _443  and  _445
REMARK  187  A    between atoms: _445  and  _446
REMARK  188  A    between atoms: _445  and  _448
REMARK  189  A    between atoms: _448  and  _449
REMARK  190  A    between atoms: _455  and  _457
REMARK  191  A    between atoms: _457  and  _458
REMARK  192  A    between atoms: _457  and  _460
REMARK  193  A    between atoms: _460  and  _461
REMARK  194  A    between atoms: _464  and  _466
REMARK  195  A    between atoms: _466  and  _467
REMARK  196  A    between atoms: _466  and  _469
REMARK  197  A    between atoms: _469  and  _470
REMARK  198  A    between atoms: _473  and  _475
REMARK  199  A    between atoms: _475  and  _476
REMARK  200  A    between atoms: _475  and  _478
REMARK  201  A    between atoms: _478  and  _479
REMARK  202  A    between atoms: _483  and  _484
REMARK  203  A    between atoms: _489  and  _491
REMARK  204  A    between atoms: _491  and  _492
REMARK  205  A    between atoms: _491  and  _494
REMARK  206  A    between atoms: _497  and  _499
REMARK  207  A    between atoms: _499  and  _500
REMARK  208  A    between atoms: _499  and  _502
REMARK  209  A    between atoms: _502  and  _503
REMARK  210  A    between atoms: _508  and  _510
REMARK  211  A    between atoms: _510  and  _511
REMARK  212  A    between atoms: _510  and  _513
REMARK  213  A    between atoms: _513  and  _514
REMARK  214  A    between atoms: _517  and  _519
REMARK  215  A    between atoms: _519  and  _520
REMARK  216  A    between atoms: _519  and  _522
REMARK  217  A    between atoms: _522  and  _523
REMARK  218  A    between atoms: _526  and  _528
REMARK  219  A    between atoms: _528  and  _529
REMARK  220  A    between atoms: _531  and  _533
REMARK  221  A    between atoms: _533  and  _534
REMARK  222  A    between atoms: _533  and  _536
REMARK  223  A    between atoms: _536  and  _537
REMARK  224  A    between atoms: _537  and  _538
REMARK  225  A    between atoms: _538  and  _539
REMARK  226  A    between atoms: _548  and  _550
REMARK  227  A    between atoms: _550  and  _551
REMARK  228  A    between atoms: _550  and  _553
REMARK  229  A    between atoms: _553  and  _554
REMARK                            x       y       z     vdW  Elec       q    Type
REMARK                         _______ _______ _______ _____ _____    ______ ____
ROOT
ATOM      1  O   HOH     1      14.271  34.940  25.785  0.00  0.00    +0.000 OA
ENDROOT
TORSDOF 0
