REMARK  Name = ../refined-set-2016/1hvk/1hvk_pocket.pdb
REMARK  240 active torsions:
REMARK  status: ('A' for Active; 'I' for Inactive)
REMARK    1  A    between atoms: _1  and  _3
REMARK    2  A    between atoms: _3  and  _4
REMARK    3  A    between atoms: _3  and  _6
REMARK    4  A    between atoms: _6  and  _7
REMARK    5  A    between atoms: _7  and  _8
REMARK    6  A    between atoms: _8  and  _9
REMARK    7  A    between atoms: _19  and  _20
REMARK    8  A    between atoms: _25  and  _27
REMARK    9  A    between atoms: _27  and  _28
REMARK   10  A    between atoms: _27  and  _30
REMARK   11  A    between atoms: _30  and  _31
REMARK   12  A    between atoms: _34  and  _36
REMARK   13  A    between atoms: _36  and  _37
REMARK   14  A    between atoms: _36  and  _39
REMARK   15  A    between atoms: _39  and  _40
REMARK   16  A    between atoms: _43  and  _45
REMARK   17  A    between atoms: _45  and  _46
REMARK   18  A    between atoms: _45  and  _48
REMARK   19  A    between atoms: _48  and  _49
REMARK   20  A    between atoms: _52  and  _54
REMARK   21  A    between atoms: _54  and  _55
REMARK   22  A    between atoms: _54  and  _57
REMARK   23  A    between atoms: _57  and  _58
REMARK   24  A    between atoms: _61  and  _63
REMARK   25  A    between atoms: _63  and  _64
REMARK   26  A    between atoms: _63  and  _66
REMARK   27  A    between atoms: _66  and  _67
REMARK   28  A    between atoms: _70  and  _72
REMARK   29  A    between atoms: _72  and  _73
REMARK   30  A    between atoms: _75  and  _77
REMARK   31  A    between atoms: _77  and  _78
REMARK   32  A    between atoms: _81  and  _83
REMARK   33  A    between atoms: _83  and  _84
REMARK   34  A    between atoms: _83  and  _86
REMARK   35  A    between atoms: _86  and  _87
REMARK   36  A    between atoms: _90  and  _92
REMARK   37  A    between atoms: _92  and  _93
REMARK   38  A    between atoms: _92  and  _95
REMARK   39  A    between atoms: _95  and  _96
REMARK   40  A    between atoms: _99  and  _101
REMARK   41  A    between atoms: _101  and  _102
REMARK   42  A    between atoms: _101  and  _104
REMARK   43  A    between atoms: _104  and  _105
REMARK   44  A    between atoms: _108  and  _110
REMARK   45  A    between atoms: _110  and  _111
REMARK   46  A    between atoms: _110  and  _113
REMARK   47  A    between atoms: _116  and  _118
REMARK   48  A    between atoms: _118  and  _119
REMARK   49  A    between atoms: _118  and  _121
REMARK   50  A    between atoms: _121  and  _122
REMARK   51  A    between atoms: _122  and  _123
REMARK   52  A    between atoms: _123  and  _124
REMARK   53  A    between atoms: _124  and  _125
REMARK   54  A    between atoms: _129  and  _131
REMARK   55  A    between atoms: _131  and  _132
REMARK   56  A    between atoms: _131  and  _134
REMARK   57  A    between atoms: _134  and  _135
REMARK   58  A    between atoms: _135  and  _136
REMARK   59  A    between atoms: _138  and  _140
REMARK   60  A    between atoms: _140  and  _141
REMARK   61  A    between atoms: _140  and  _143
REMARK   62  A    between atoms: _143  and  _144
REMARK   63  A    between atoms: _147  and  _149
REMARK   64  A    between atoms: _149  and  _150
REMARK   65  A    between atoms: _152  and  _154
REMARK   66  A    between atoms: _154  and  _155
REMARK   67  A    between atoms: _157  and  _159
REMARK   68  A    between atoms: _159  and  _160
REMARK   69  A    between atoms: _159  and  _162
REMARK   70  A    between atoms: _162  and  _163
REMARK   71  A    between atoms: _166  and  _168
REMARK   72  A    between atoms: _168  and  _169
REMARK   73  A    between atoms: _171  and  _173
REMARK   74  A    between atoms: _173  and  _174
REMARK   75  A    between atoms: _176  and  _178
REMARK   76  A    between atoms: _178  and  _179
REMARK   77  A    between atoms: _178  and  _181
REMARK   78  A    between atoms: _181  and  _182
REMARK   79  A    between atoms: _188  and  _190
REMARK   80  A    between atoms: _190  and  _191
REMARK   81  A    between atoms: _190  and  _193
REMARK   82  A    between atoms: _193  and  _194
REMARK   83  A    between atoms: _197  and  _199
REMARK   84  A    between atoms: _199  and  _200
REMARK   85  A    between atoms: _199  and  _202
REMARK   86  A    between atoms: _205  and  _207
REMARK   87  A    between atoms: _207  and  _208
REMARK   88  A    between atoms: _207  and  _210
REMARK   89  A    between atoms: _210  and  _211
REMARK   90  A    between atoms: _215  and  _216
REMARK   91  A    between atoms: _221  and  _223
REMARK   92  A    between atoms: _223  and  _224
REMARK   93  A    between atoms: _223  and  _226
REMARK   94  A    between atoms: _226  and  _227
REMARK   95  A    between atoms: _231  and  _232
REMARK   96  A    between atoms: _237  and  _239
REMARK   97  A    between atoms: _239  and  _240
REMARK   98  A    between atoms: _239  and  _242
REMARK   99  A    between atoms: _245  and  _247
REMARK  100  A    between atoms: _247  and  _248
REMARK  101  A    between atoms: _247  and  _250
REMARK  102  A    between atoms: _250  and  _251
REMARK  103  A    between atoms: _256  and  _258
REMARK  104  A    between atoms: _258  and  _259
REMARK  105  A    between atoms: _258  and  _261
REMARK  106  A    between atoms: _261  and  _262
REMARK  107  A    between atoms: _265  and  _267
REMARK  108  A    between atoms: _267  and  _268
REMARK  109  A    between atoms: _267  and  _270
REMARK  110  A    between atoms: _270  and  _271
REMARK  111  A    between atoms: _274  and  _276
REMARK  112  A    between atoms: _276  and  _277
REMARK  113  A    between atoms: _279  and  _281
REMARK  114  A    between atoms: _281  and  _282
REMARK  115  A    between atoms: _281  and  _284
REMARK  116  A    between atoms: _284  and  _285
REMARK  117  A    between atoms: _285  and  _286
REMARK  118  A    between atoms: _286  and  _287
REMARK  119  A    between atoms: _296  and  _298
REMARK  120  A    between atoms: _298  and  _299
REMARK  121  A    between atoms: _298  and  _301
REMARK  122  A    between atoms: _301  and  _302
REMARK  123  A    between atoms: _302  and  _303
REMARK  124  A    between atoms: _303  and  _304
REMARK  125  A    between atoms: _314  and  _315
REMARK  126  A    between atoms: _320  and  _322
REMARK  127  A    between atoms: _322  and  _323
REMARK  128  A    between atoms: _322  and  _325
REMARK  129  A    between atoms: _325  and  _326
REMARK  130  A    between atoms: _329  and  _331
REMARK  131  A    between atoms: _331  and  _332
REMARK  132  A    between atoms: _331  and  _334
REMARK  133  A    between atoms: _334  and  _335
REMARK  134  A    between atoms: _335  and  _336
REMARK  135  A    between atoms: _339  and  _341
REMARK  136  A    between atoms: _341  and  _342
REMARK  137  A    between atoms: _341  and  _344
REMARK  138  A    between atoms: _344  and  _345
REMARK  139  A    between atoms: _348  and  _350
REMARK  140  A    between atoms: _350  and  _351
REMARK  141  A    between atoms: _350  and  _353
REMARK  142  A    between atoms: _353  and  _354
REMARK  143  A    between atoms: _357  and  _359
REMARK  144  A    between atoms: _359  and  _360
REMARK  145  A    between atoms: _359  and  _362
REMARK  146  A    between atoms: _362  and  _363
REMARK  147  A    between atoms: _366  and  _368
REMARK  148  A    between atoms: _368  and  _369
REMARK  149  A    between atoms: _368  and  _371
REMARK  150  A    between atoms: _371  and  _372
REMARK  151  A    between atoms: _375  and  _377
REMARK  152  A    between atoms: _377  and  _378
REMARK  153  A    between atoms: _380  and  _382
REMARK  154  A    between atoms: _382  and  _383
REMARK  155  A    between atoms: _386  and  _388
REMARK  156  A    between atoms: _388  and  _389
REMARK  157  A    between atoms: _388  and  _391
REMARK  158  A    between atoms: _391  and  _392
REMARK  159  A    between atoms: _395  and  _397
REMARK  160  A    between atoms: _397  and  _398
REMARK  161  A    between atoms: _397  and  _400
REMARK  162  A    between atoms: _400  and  _401
REMARK  163  A    between atoms: _404  and  _406
REMARK  164  A    between atoms: _406  and  _407
REMARK  165  A    between atoms: _406  and  _409
REMARK  166  A    between atoms: _409  and  _410
REMARK  167  A    between atoms: _413  and  _415
REMARK  168  A    between atoms: _415  and  _416
REMARK  169  A    between atoms: _415  and  _418
REMARK  170  A    between atoms: _421  and  _423
REMARK  171  A    between atoms: _423  and  _424
REMARK  172  A    between atoms: _423  and  _426
REMARK  173  A    between atoms: _426  and  _427
REMARK  174  A    between atoms: _427  and  _428
REMARK  175  A    between atoms: _428  and  _429
REMARK  176  A    between atoms: _429  and  _430
REMARK  177  A    between atoms: _434  and  _436
REMARK  178  A    between atoms: _436  and  _437
REMARK  179  A    between atoms: _436  and  _439
REMARK  180  A    between atoms: _439  and  _440
REMARK  181  A    between atoms: _440  and  _441
REMARK  182  A    between atoms: _443  and  _445
REMARK  183  A    between atoms: _445  and  _446
REMARK  184  A    between atoms: _445  and  _448
REMARK  185  A    between atoms: _448  and  _449
REMARK  186  A    between atoms: _452  and  _454
REMARK  187  A    between atoms: _454  and  _455
REMARK  188  A    between atoms: _457  and  _459
REMARK  189  A    between atoms: _459  and  _460
REMARK  190  A    between atoms: _462  and  _464
REMARK  191  A    between atoms: _464  and  _465
REMARK  192  A    between atoms: _464  and  _467
REMARK  193  A    between atoms: _467  and  _468
REMARK  194  A    between atoms: _471  and  _473
REMARK  195  A    between atoms: _473  and  _474
REMARK  196  A    between atoms: _476  and  _478
REMARK  197  A    between atoms: _478  and  _479
REMARK  198  A    between atoms: _481  and  _483
REMARK  199  A    between atoms: _483  and  _484
REMARK  200  A    between atoms: _483  and  _486
REMARK  201  A    between atoms: _486  and  _487
REMARK  202  A    between atoms: _493  and  _495
REMARK  203  A    between atoms: _495  and  _496
REMARK  204  A    between atoms: _495  and  _498
REMARK  205  A    between atoms: _498  and  _499
REMARK  206  A    between atoms: _502  and  _504
REMARK  207  A    between atoms: _504  and  _505
REMARK  208  A    between atoms: _504  and  _507
REMARK  209  A    between atoms: _510  and  _512
REMARK  210  A    between atoms: _512  and  _513
REMARK  211  A    between atoms: _512  and  _515
REMARK  212  A    between atoms: _515  and  _516
REMARK  213  A    between atoms: _519  and  _521
REMARK  214  A    between atoms: _521  and  _522
REMARK  215  A    between atoms: _521  and  _524
REMARK  216  A    between atoms: _524  and  _525
REMARK  217  A    between atoms: _529  and  _530
REMARK  218  A    between atoms: _535  and  _537
REMARK  219  A    between atoms: _537  and  _538
REMARK  220  A    between atoms: _537  and  _540
REMARK  221  A    between atoms: _543  and  _545
REMARK  222  A    between atoms: _545  and  _546
REMARK  223  A    between atoms: _545  and  _548
REMARK  224  A    between atoms: _548  and  _549
REMARK  225  A    between atoms: _554  and  _556
REMARK  226  A    between atoms: _556  and  _557
REMARK  227  A    between atoms: _556  and  _559
REMARK  228  A    between atoms: _559  and  _560
REMARK  229  A    between atoms: _563  and  _565
REMARK  230  A    between atoms: _565  and  _566
REMARK  231  A    between atoms: _565  and  _568
REMARK  232  A    between atoms: _568  and  _569
REMARK  233  A    between atoms: _572  and  _574
REMARK  234  A    between atoms: _574  and  _575
REMARK  235  A    between atoms: _577  and  _579
REMARK  236  A    between atoms: _579  and  _580
REMARK  237  A    between atoms: _579  and  _582
REMARK  238  A    between atoms: _582  and  _583
REMARK  239  A    between atoms: _583  and  _584
REMARK  240  A    between atoms: _584  and  _585
REMARK                            x       y       z     vdW  Elec       q    Type
REMARK                         _______ _______ _______ _____ _____    ______ ____
ROOT
ATOM      1  C   ARG A   1       2.112  -3.605  27.514  0.00  0.00    +0.241 C 
ATOM      2  O   ARG A   1       1.337  -3.995  28.376  0.00  0.00    -0.273 OA
ATOM      3  N   PRO A   2       2.069  -2.375  26.980  0.00  0.00    -0.272 N 
ATOM      4  CA  PRO A   2       1.053  -1.415  27.444  0.00  0.00    +0.152 C 
ATOM      5  CB  PRO A   2       1.690  -0.051  27.137  0.00  0.00    +0.031 C 
ATOM      6  CG  PRO A   2       2.606  -0.307  25.938  0.00  0.00    +0.024 C 
ATOM      7  CD  PRO A   2       3.065  -1.767  26.109  0.00  0.00    +0.094 C 
ENDROOT
BRANCH   4   8
ATOM      8  C   PRO A   2      -0.286  -1.626  26.772  0.00  0.00    +0.241 C 
ATOM      9  N   LEU A   3      -0.827  -2.767  27.146  0.00  0.00    -0.298 N 
ATOM     10  H   LEU A   3      -0.273  -3.421  27.734  0.00  0.00    +0.150 HD
ATOM     11  O   PRO A   2      -0.820  -0.855  26.002  0.00  0.00    -0.273 OA
BRANCH   9  12
ATOM     12  CA  LEU A   3      -2.187  -3.138  26.756  0.00  0.00    +0.137 C 
BRANCH  12  13
ATOM     13  C   LEU A   3      -3.242  -2.553  27.637  0.00  0.00    +0.227 C 
ATOM     14  O   LEU A   3      -3.198  -2.689  28.847  0.00  0.00    -0.286 OA
ENDBRANCH  12  13
BRANCH  12  15
ATOM     15  CB  LEU A   3      -2.395  -4.640  26.867  0.00  0.00    +0.028 C 
BRANCH  15  16
ATOM     16  CG  LEU A   3      -1.533  -5.427  25.886  0.00  0.00    +0.002 C 
ATOM     17  CD2 LEU A   3      -1.484  -6.899  26.320  0.00  0.00    +0.000 C 
ATOM     18  CD1 LEU A   3      -2.005  -5.259  24.437  0.00  0.00    +0.000 C 
ENDBRANCH  15  16
ENDBRANCH  12  15
ENDBRANCH   9  12
ENDBRANCH   4   8
BRANCH   1  19
ATOM     19  CA  ARG A   1       3.232  -4.533  27.057  0.00  0.00    +0.145 C 
BRANCH  19  20
ATOM     20  N   ARG A   1       3.970  -5.225  28.150  0.00  0.00    -0.238 NA
ATOM     21  H   ARG A   1       4.060  -6.261  28.178  0.00  0.00    +0.142 HD
ENDBRANCH  19  20
BRANCH  19  22
ATOM     22  CB  ARG A   1       2.632  -5.577  26.130  0.00  0.00    +0.030 C 
BRANCH  22  23
ATOM     23  CG  ARG A   1       3.724  -6.333  25.441  0.00  0.00    +0.045 C 
BRANCH  23  24
ATOM     24  CD  ARG A   1       3.137  -7.329  24.474  0.00  0.00    +0.174 C 
BRANCH  24  25
ATOM     25  NE  ARG A   1       4.216  -8.065  23.802  0.00  0.00    -0.265 N 
ATOM     26  HE  ARG A   1       5.112  -7.588  23.576  0.00  0.00    +0.259 HD
ATOM     27  CZ  ARG A   1       4.040  -9.363  23.479  0.00  0.00    +0.342 C 
ATOM     28  NH2 ARG A   1       2.918  -9.996  23.854  0.00  0.00    -0.292 N 
ATOM     29 HH21 ARG A   1       2.188  -9.486  24.392  0.00  0.00    +0.255 HD
ATOM     30 HH22 ARG A   1       2.778 -10.997  23.607  0.00  0.00    +0.255 HD
ATOM     31  NH1 ARG A   1       4.977 -10.005  22.771  0.00  0.00    -0.292 N 
ATOM     32 HH11 ARG A   1       4.845 -11.006  22.520  0.00  0.00    +0.255 HD
ATOM     33 HH12 ARG A   1       5.837  -9.503  22.472  0.00  0.00    +0.255 HD
ENDBRANCH  24  25
ENDBRANCH  23  24
ENDBRANCH  22  23
ENDBRANCH  19  22
ENDBRANCH   1  19
TORSDOF 11
REMARK  Name = ../refined-set-2016/1hvk/1hvk_pocket.pdb
REMARK  240 active torsions:
REMARK  status: ('A' for Active; 'I' for Inactive)
REMARK    1  A    between atoms: _1  and  _3
REMARK    2  A    between atoms: _3  and  _4
REMARK    3  A    between atoms: _3  and  _6
REMARK    4  A    between atoms: _6  and  _7
REMARK    5  A    between atoms: _7  and  _8
REMARK    6  A    between atoms: _8  and  _9
REMARK    7  A    between atoms: _19  and  _20
REMARK    8  A    between atoms: _25  and  _27
REMARK    9  A    between atoms: _27  and  _28
REMARK   10  A    between atoms: _27  and  _30
REMARK   11  A    between atoms: _30  and  _31
REMARK   12  A    between atoms: _34  and  _36
REMARK   13  A    between atoms: _36  and  _37
REMARK   14  A    between atoms: _36  and  _39
REMARK   15  A    between atoms: _39  and  _40
REMARK   16  A    between atoms: _43  and  _45
REMARK   17  A    between atoms: _45  and  _46
REMARK   18  A    between atoms: _45  and  _48
REMARK   19  A    between atoms: _48  and  _49
REMARK   20  A    between atoms: _52  and  _54
REMARK   21  A    between atoms: _54  and  _55
REMARK   22  A    between atoms: _54  and  _57
REMARK   23  A    between atoms: _57  and  _58
REMARK   24  A    between atoms: _61  and  _63
REMARK   25  A    between atoms: _63  and  _64
REMARK   26  A    between atoms: _63  and  _66
REMARK   27  A    between atoms: _66  and  _67
REMARK   28  A    between atoms: _70  and  _72
REMARK   29  A    between atoms: _72  and  _73
REMARK   30  A    between atoms: _75  and  _77
REMARK   31  A    between atoms: _77  and  _78
REMARK   32  A    between atoms: _81  and  _83
REMARK   33  A    between atoms: _83  and  _84
REMARK   34  A    between atoms: _83  and  _86
REMARK   35  A    between atoms: _86  and  _87
REMARK   36  A    between atoms: _90  and  _92
REMARK   37  A    between atoms: _92  and  _93
REMARK   38  A    between atoms: _92  and  _95
REMARK   39  A    between atoms: _95  and  _96
REMARK   40  A    between atoms: _99  and  _101
REMARK   41  A    between atoms: _101  and  _102
REMARK   42  A    between atoms: _101  and  _104
REMARK   43  A    between atoms: _104  and  _105
REMARK   44  A    between atoms: _108  and  _110
REMARK   45  A    between atoms: _110  and  _111
REMARK   46  A    between atoms: _110  and  _113
REMARK   47  A    between atoms: _116  and  _118
REMARK   48  A    between atoms: _118  and  _119
REMARK   49  A    between atoms: _118  and  _121
REMARK   50  A    between atoms: _121  and  _122
REMARK   51  A    between atoms: _122  and  _123
REMARK   52  A    between atoms: _123  and  _124
REMARK   53  A    between atoms: _124  and  _125
REMARK   54  A    between atoms: _129  and  _131
REMARK   55  A    between atoms: _131  and  _132
REMARK   56  A    between atoms: _131  and  _134
REMARK   57  A    between atoms: _134  and  _135
REMARK   58  A    between atoms: _135  and  _136
REMARK   59  A    between atoms: _138  and  _140
REMARK   60  A    between atoms: _140  and  _141
REMARK   61  A    between atoms: _140  and  _143
REMARK   62  A    between atoms: _143  and  _144
REMARK   63  A    between atoms: _147  and  _149
REMARK   64  A    between atoms: _149  and  _150
REMARK   65  A    between atoms: _152  and  _154
REMARK   66  A    between atoms: _154  and  _155
REMARK   67  A    between atoms: _157  and  _159
REMARK   68  A    between atoms: _159  and  _160
REMARK   69  A    between atoms: _159  and  _162
REMARK   70  A    between atoms: _162  and  _163
REMARK   71  A    between atoms: _166  and  _168
REMARK   72  A    between atoms: _168  and  _169
REMARK   73  A    between atoms: _171  and  _173
REMARK   74  A    between atoms: _173  and  _174
REMARK   75  A    between atoms: _176  and  _178
REMARK   76  A    between atoms: _178  and  _179
REMARK   77  A    between atoms: _178  and  _181
REMARK   78  A    between atoms: _181  and  _182
REMARK   79  A    between atoms: _188  and  _190
REMARK   80  A    between atoms: _190  and  _191
REMARK   81  A    between atoms: _190  and  _193
REMARK   82  A    between atoms: _193  and  _194
REMARK   83  A    between atoms: _197  and  _199
REMARK   84  A    between atoms: _199  and  _200
REMARK   85  A    between atoms: _199  and  _202
REMARK   86  A    between atoms: _205  and  _207
REMARK   87  A    between atoms: _207  and  _208
REMARK   88  A    between atoms: _207  and  _210
REMARK   89  A    between atoms: _210  and  _211
REMARK   90  A    between atoms: _215  and  _216
REMARK   91  A    between atoms: _221  and  _223
REMARK   92  A    between atoms: _223  and  _224
REMARK   93  A    between atoms: _223  and  _226
REMARK   94  A    between atoms: _226  and  _227
REMARK   95  A    between atoms: _231  and  _232
REMARK   96  A    between atoms: _237  and  _239
REMARK   97  A    between atoms: _239  and  _240
REMARK   98  A    between atoms: _239  and  _242
REMARK   99  A    between atoms: _245  and  _247
REMARK  100  A    between atoms: _247  and  _248
REMARK  101  A    between atoms: _247  and  _250
REMARK  102  A    between atoms: _250  and  _251
REMARK  103  A    between atoms: _256  and  _258
REMARK  104  A    between atoms: _258  and  _259
REMARK  105  A    between atoms: _258  and  _261
REMARK  106  A    between atoms: _261  and  _262
REMARK  107  A    between atoms: _265  and  _267
REMARK  108  A    between atoms: _267  and  _268
REMARK  109  A    between atoms: _267  and  _270
REMARK  110  A    between atoms: _270  and  _271
REMARK  111  A    between atoms: _274  and  _276
REMARK  112  A    between atoms: _276  and  _277
REMARK  113  A    between atoms: _279  and  _281
REMARK  114  A    between atoms: _281  and  _282
REMARK  115  A    between atoms: _281  and  _284
REMARK  116  A    between atoms: _284  and  _285
REMARK  117  A    between atoms: _285  and  _286
REMARK  118  A    between atoms: _286  and  _287
REMARK  119  A    between atoms: _296  and  _298
REMARK  120  A    between atoms: _298  and  _299
REMARK  121  A    between atoms: _298  and  _301
REMARK  122  A    between atoms: _301  and  _302
REMARK  123  A    between atoms: _302  and  _303
REMARK  124  A    between atoms: _303  and  _304
REMARK  125  A    between atoms: _314  and  _315
REMARK  126  A    between atoms: _320  and  _322
REMARK  127  A    between atoms: _322  and  _323
REMARK  128  A    between atoms: _322  and  _325
REMARK  129  A    between atoms: _325  and  _326
REMARK  130  A    between atoms: _329  and  _331
REMARK  131  A    between atoms: _331  and  _332
REMARK  132  A    between atoms: _331  and  _334
REMARK  133  A    between atoms: _334  and  _335
REMARK  134  A    between atoms: _335  and  _336
REMARK  135  A    between atoms: _339  and  _341
REMARK  136  A    between atoms: _341  and  _342
REMARK  137  A    between atoms: _341  and  _344
REMARK  138  A    between atoms: _344  and  _345
REMARK  139  A    between atoms: _348  and  _350
REMARK  140  A    between atoms: _350  and  _351
REMARK  141  A    between atoms: _350  and  _353
REMARK  142  A    between atoms: _353  and  _354
REMARK  143  A    between atoms: _357  and  _359
REMARK  144  A    between atoms: _359  and  _360
REMARK  145  A    between atoms: _359  and  _362
REMARK  146  A    between atoms: _362  and  _363
REMARK  147  A    between atoms: _366  and  _368
REMARK  148  A    between atoms: _368  and  _369
REMARK  149  A    between atoms: _368  and  _371
REMARK  150  A    between atoms: _371  and  _372
REMARK  151  A    between atoms: _375  and  _377
REMARK  152  A    between atoms: _377  and  _378
REMARK  153  A    between atoms: _380  and  _382
REMARK  154  A    between atoms: _382  and  _383
REMARK  155  A    between atoms: _386  and  _388
REMARK  156  A    between atoms: _388  and  _389
REMARK  157  A    between atoms: _388  and  _391
REMARK  158  A    between atoms: _391  and  _392
REMARK  159  A    between atoms: _395  and  _397
REMARK  160  A    between atoms: _397  and  _398
REMARK  161  A    between atoms: _397  and  _400
REMARK  162  A    between atoms: _400  and  _401
REMARK  163  A    between atoms: _404  and  _406
REMARK  164  A    between atoms: _406  and  _407
REMARK  165  A    between atoms: _406  and  _409
REMARK  166  A    between atoms: _409  and  _410
REMARK  167  A    between atoms: _413  and  _415
REMARK  168  A    between atoms: _415  and  _416
REMARK  169  A    between atoms: _415  and  _418
REMARK  170  A    between atoms: _421  and  _423
REMARK  171  A    between atoms: _423  and  _424
REMARK  172  A    between atoms: _423  and  _426
REMARK  173  A    between atoms: _426  and  _427
REMARK  174  A    between atoms: _427  and  _428
REMARK  175  A    between atoms: _428  and  _429
REMARK  176  A    between atoms: _429  and  _430
REMARK  177  A    between atoms: _434  and  _436
REMARK  178  A    between atoms: _436  and  _437
REMARK  179  A    between atoms: _436  and  _439
REMARK  180  A    between atoms: _439  and  _440
REMARK  181  A    between atoms: _440  and  _441
REMARK  182  A    between atoms: _443  and  _445
REMARK  183  A    between atoms: _445  and  _446
REMARK  184  A    between atoms: _445  and  _448
REMARK  185  A    between atoms: _448  and  _449
REMARK  186  A    between atoms: _452  and  _454
REMARK  187  A    between atoms: _454  and  _455
REMARK  188  A    between atoms: _457  and  _459
REMARK  189  A    between atoms: _459  and  _460
REMARK  190  A    between atoms: _462  and  _464
REMARK  191  A    between atoms: _464  and  _465
REMARK  192  A    between atoms: _464  and  _467
REMARK  193  A    between atoms: _467  and  _468
REMARK  194  A    between atoms: _471  and  _473
REMARK  195  A    between atoms: _473  and  _474
REMARK  196  A    between atoms: _476  and  _478
REMARK  197  A    between atoms: _478  and  _479
REMARK  198  A    between atoms: _481  and  _483
REMARK  199  A    between atoms: _483  and  _484
REMARK  200  A    between atoms: _483  and  _486
REMARK  201  A    between atoms: _486  and  _487
REMARK  202  A    between atoms: _493  and  _495
REMARK  203  A    between atoms: _495  and  _496
REMARK  204  A    between atoms: _495  and  _498
REMARK  205  A    between atoms: _498  and  _499
REMARK  206  A    between atoms: _502  and  _504
REMARK  207  A    between atoms: _504  and  _505
REMARK  208  A    between atoms: _504  and  _507
REMARK  209  A    between atoms: _510  and  _512
REMARK  210  A    between atoms: _512  and  _513
REMARK  211  A    between atoms: _512  and  _515
REMARK  212  A    between atoms: _515  and  _516
REMARK  213  A    between atoms: _519  and  _521
REMARK  214  A    between atoms: _521  and  _522
REMARK  215  A    between atoms: _521  and  _524
REMARK  216  A    between atoms: _524  and  _525
REMARK  217  A    between atoms: _529  and  _530
REMARK  218  A    between atoms: _535  and  _537
REMARK  219  A    between atoms: _537  and  _538
REMARK  220  A    between atoms: _537  and  _540
REMARK  221  A    between atoms: _543  and  _545
REMARK  222  A    between atoms: _545  and  _546
REMARK  223  A    between atoms: _545  and  _548
REMARK  224  A    between atoms: _548  and  _549
REMARK  225  A    between atoms: _554  and  _556
REMARK  226  A    between atoms: _556  and  _557
REMARK  227  A    between atoms: _556  and  _559
REMARK  228  A    between atoms: _559  and  _560
REMARK  229  A    between atoms: _563  and  _565
REMARK  230  A    between atoms: _565  and  _566
REMARK  231  A    between atoms: _565  and  _568
REMARK  232  A    between atoms: _568  and  _569
REMARK  233  A    between atoms: _572  and  _574
REMARK  234  A    between atoms: _574  and  _575
REMARK  235  A    between atoms: _577  and  _579
REMARK  236  A    between atoms: _579  and  _580
REMARK  237  A    between atoms: _579  and  _582
REMARK  238  A    between atoms: _582  and  _583
REMARK  239  A    between atoms: _583  and  _584
REMARK  240  A    between atoms: _584  and  _585
REMARK                            x       y       z     vdW  Elec       q    Type
REMARK                         _______ _______ _______ _____ _____    ______ ____
ROOT
ATOM      1  C   GLY A   5       4.566   4.333  15.882  0.00  0.00    +0.243 C 
ATOM      2  N   ALA A   6       3.279   4.187  16.158  0.00  0.00    -0.297 N 
ATOM      3  H   ALA A   6       2.959   4.129  17.146  0.00  0.00    +0.150 HD
ATOM      4  O   GLY A   5       4.998   4.347  14.738  0.00  0.00    -0.273 OA
ENDROOT
BRANCH   2   5
ATOM      5  CA  ALA A   6       2.314   4.108  15.068  0.00  0.00    +0.149 C 
ATOM      6  CB  ALA A   6       1.251   3.062  15.396  0.00  0.00    +0.031 C 
BRANCH   5   7
ATOM      7  C   ALA A   6       1.624   5.441  14.758  0.00  0.00    +0.241 C 
ATOM      8  O   ALA A   6       1.066   6.122  15.620  0.00  0.00    -0.273 OA
ATOM      9  N   ASP A   7       1.633   5.817  13.463  0.00  0.00    -0.297 N 
ATOM     10  H   ASP A   7       2.153   5.281  12.739  0.00  0.00    +0.150 HD
BRANCH   9  11
ATOM     11  CA  ASP A   7       0.863   7.033  13.130  0.00  0.00    +0.160 C 
BRANCH  11  12
ATOM     12  C   ASP A   7      -0.631   6.872  13.278  0.00  0.00    +0.241 C 
ATOM     13  O   ASP A   7      -1.365   7.788  13.598  0.00  0.00    -0.273 OA
ATOM     14  N   ASP A   8      -1.031   5.647  12.987  0.00  0.00    -0.297 N 
ATOM     15  H   ASP A   8      -0.312   4.912  12.829  0.00  0.00    +0.150 HD
BRANCH  14  16
ATOM     16  CA  ASP A   8      -2.441   5.281  12.878  0.00  0.00    +0.160 C 
BRANCH  16  17
ATOM     17  C   ASP A   8      -2.884   4.203  13.844  0.00  0.00    +0.241 C 
ATOM     18  O   ASP A   8      -2.104   3.489  14.443  0.00  0.00    -0.273 OA
ATOM     19  N   THR A   9      -4.187   4.116  13.944  0.00  0.00    -0.295 N 
ATOM     20  H   THR A   9      -4.765   4.810  13.428  0.00  0.00    +0.150 HD
BRANCH  19  21
ATOM     21  CA  THR A   9      -4.881   3.097  14.742  0.00  0.00    +0.176 C 
BRANCH  21  22
ATOM     22  C   THR A   9      -5.474   2.045  13.830  0.00  0.00    +0.243 C 
ATOM     23  N   VAL A  10      -5.039   0.819  14.138  0.00  0.00    -0.298 N 
ATOM     24  H   VAL A  10      -4.381   0.744  14.940  0.00  0.00    +0.150 HD
ATOM     25  O   THR A   9      -6.252   2.315  12.921  0.00  0.00    -0.273 OA
BRANCH  23  26
ATOM     26  CA  VAL A  10      -5.396  -0.426  13.461  0.00  0.00    +0.137 C 
BRANCH  26  27
ATOM     27  CB  VAL A  10      -4.187  -1.047  12.724  0.00  0.00    +0.026 C 
ATOM     28  CG2 VAL A  10      -3.356   0.046  12.075  0.00  0.00    +0.002 C 
ATOM     29  CG1 VAL A  10      -4.729  -1.964  11.608  0.00  0.00    +0.002 C 
ENDBRANCH  26  27
BRANCH  26  30
ATOM     30  C   VAL A  10      -5.960  -1.492  14.391  0.00  0.00    +0.227 C 
ATOM     31  O   VAL A  10      -5.308  -1.981  15.289  0.00  0.00    -0.286 OA
ENDBRANCH  26  30
ENDBRANCH  23  26
ENDBRANCH  21  22
BRANCH  21  32
ATOM     32  CB  THR A   9      -6.054   3.732  15.567  0.00  0.00    +0.137 C 
ATOM     33  CG2 THR A   9      -6.939   2.738  16.301  0.00  0.00    +0.034 C 
BRANCH  32  34
ATOM     34  OG1 THR A   9      -5.504   4.631  16.541  0.00  0.00    -0.382 OA
ATOM     35  HG1 THR A   9      -4.994   5.344  16.080  0.00  0.00    +0.210 HD
ENDBRANCH  32  34
ENDBRANCH  21  32
ENDBRANCH  19  21
ENDBRANCH  16  17
BRANCH  16  36
ATOM     36  CB  ASP A   8      -2.745   4.716  11.462  0.00  0.00    +0.143 C 
BRANCH  36  37
ATOM     37  CG  ASP A   8      -2.227   5.628  10.352  0.00  0.00    +0.367 C 
ATOM     38  OD2 ASP A   8      -2.656   6.786  10.270  0.00  0.00    -0.246 OA
ATOM     39  OD1 ASP A   8      -1.376   5.160   9.590  0.00  0.00    -0.246 OA
ENDBRANCH  36  37
ENDBRANCH  16  36
ENDBRANCH  14  16
ENDBRANCH  11  12
BRANCH  11  40
ATOM     40  CB  ASP A   7       0.984   7.419  11.672  0.00  0.00    +0.143 C 
BRANCH  40  41
ATOM     41  CG  ASP A   7       2.337   7.954  11.314  0.00  0.00    +0.367 C 
ATOM     42  OD2 ASP A   7       3.195   8.108  12.168  0.00  0.00    -0.246 OA
ATOM     43  OD1 ASP A   7       2.512   8.253  10.147  0.00  0.00    -0.246 OA
ENDBRANCH  40  41
ENDBRANCH  11  40
ENDBRANCH   9  11
ENDBRANCH   5   7
ENDBRANCH   2   5
BRANCH   1  44
ATOM     44  CA  GLY A   5       5.492   4.441  17.101  0.00  0.00    +0.176 C 
BRANCH  44  46
ATOM     45  C   THR A   4       4.461   5.699  18.882  0.00  0.00    +0.243 C 
ATOM     46  N   GLY A   5       4.818   4.510  18.409  0.00  0.00    -0.295 N 
ATOM     47  H   GLY A   5       4.625   3.644  18.952  0.00  0.00    +0.150 HD
ATOM     48  O   THR A   4       4.691   6.714  18.253  0.00  0.00    -0.273 OA
BRANCH  45  49
ATOM     49  CA  THR A   4       3.728   5.707  20.233  0.00  0.00    +0.176 C 
BRANCH  49  51
ATOM     50  C   ASP A   3       2.206   3.857  20.059  0.00  0.00    +0.241 C 
ATOM     51  N   THR A   4       3.210   4.412  20.727  0.00  0.00    -0.295 N 
ATOM     52  H   THR A   4       3.618   3.953  21.567  0.00  0.00    +0.150 HD
ATOM     53  O   ASP A   3       1.779   4.352  19.045  0.00  0.00    -0.273 OA
BRANCH  50  54
ATOM     54  CA  ASP A   3       1.662   2.551  20.592  0.00  0.00    +0.160 C 
BRANCH  54  57
ATOM     55  C   LEU A   2       0.519   2.144  22.614  0.00  0.00    +0.241 C 
ATOM     56  O   LEU A   2       1.591   1.824  23.114  0.00  0.00    -0.273 OA
ATOM     57  N   ASP A   3       0.452   2.681  21.420  0.00  0.00    -0.297 N 
ATOM     58  H   ASP A   3      -0.402   3.168  21.080  0.00  0.00    +0.150 HD
BRANCH  55  59
ATOM     59  CA  LEU A   2      -0.807   1.886  23.303  0.00  0.00    +0.149 C 
BRANCH  59  61
ATOM     60  C   LEU A   1      -1.554  -0.231  22.421  0.00  0.00    +0.238 C 
ATOM     61  N   LEU A   2      -1.076   0.443  23.468  0.00  0.00    -0.297 N 
ATOM     62  H   LEU A   2      -0.898  -0.034  24.375  0.00  0.00    +0.150 HD
ATOM     63  O   LEU A   1      -1.883   0.312  21.383  0.00  0.00    -0.274 OA
BRANCH  60  64
ATOM     64  CA  LEU A   1      -1.714  -1.724  22.563  0.00  0.00    +0.145 C 
BRANCH  64  65
ATOM     65  N   LEU A   1      -3.050  -2.142  22.141  0.00  0.00    -0.238 NA
ATOM     66  H   LEU A   1      -3.249  -2.347  21.141  0.00  0.00    +0.142 HD
ENDBRANCH  64  65
BRANCH  64  67
ATOM     67  CB  LEU A   1      -0.785  -2.465  21.608  0.00  0.00    +0.026 C 
BRANCH  67  68
ATOM     68  CG  LEU A   1       0.731  -2.318  21.747  0.00  0.00    +0.002 C 
ATOM     69  CD2 LEU A   1       1.238  -2.867  23.087  0.00  0.00    +0.000 C 
ATOM     70  CD1 LEU A   1       1.426  -3.066  20.562  0.00  0.00    +0.000 C 
ENDBRANCH  67  68
ENDBRANCH  64  67
ENDBRANCH  60  64
ENDBRANCH  59  61
BRANCH  59  71
ATOM     71  CB  LEU A   2      -0.753   2.560  24.686  0.00  0.00    +0.029 C 
BRANCH  71  72
ATOM     72  CG  LEU A   2      -2.054   2.457  25.459  0.00  0.00    +0.002 C 
ATOM     73  CD2 LEU A   2      -1.889   3.116  26.813  0.00  0.00    +0.000 C 
ATOM     74  CD1 LEU A   2      -3.172   3.145  24.705  0.00  0.00    +0.000 C 
ENDBRANCH  71  72
ENDBRANCH  59  71
ENDBRANCH  55  59
ENDBRANCH  54  57
BRANCH  54  75
ATOM     75  CB  ASP A   3       1.306   1.569  19.448  0.00  0.00    +0.143 C 
BRANCH  75  76
ATOM     76  CG  ASP A   3       2.463   1.141  18.573  0.00  0.00    +0.367 C 
ATOM     77  OD2 ASP A   3       3.519   1.767  18.573  0.00  0.00    -0.246 OA
ATOM     78  OD1 ASP A   3       2.293   0.150  17.866  0.00  0.00    -0.246 OA
ENDBRANCH  75  76
ENDBRANCH  54  75
ENDBRANCH  50  54
ENDBRANCH  49  51
BRANCH  49  79
ATOM     79  CB  THR A   4       4.671   6.310  21.292  0.00  0.00    +0.137 C 
ATOM     80  CG2 THR A   4       3.963   6.482  22.658  0.00  0.00    +0.034 C 
BRANCH  79  81
ATOM     81  OG1 THR A   4       5.793   5.429  21.439  0.00  0.00    -0.382 OA
ATOM     82  HG1 THR A   4       6.262   5.346  20.571  0.00  0.00    +0.210 HD
ENDBRANCH  79  81
ENDBRANCH  49  79
ENDBRANCH  45  49
ENDBRANCH  44  46
ENDBRANCH   1  44
TORSDOF 35
REMARK  Name = ../refined-set-2016/1hvk/1hvk_pocket.pdb
REMARK  240 active torsions:
REMARK  status: ('A' for Active; 'I' for Inactive)
REMARK    1  A    between atoms: _1  and  _3
REMARK    2  A    between atoms: _3  and  _4
REMARK    3  A    between atoms: _3  and  _6
REMARK    4  A    between atoms: _6  and  _7
REMARK    5  A    between atoms: _7  and  _8
REMARK    6  A    between atoms: _8  and  _9
REMARK    7  A    between atoms: _19  and  _20
REMARK    8  A    between atoms: _25  and  _27
REMARK    9  A    between atoms: _27  and  _28
REMARK   10  A    between atoms: _27  and  _30
REMARK   11  A    between atoms: _30  and  _31
REMARK   12  A    between atoms: _34  and  _36
REMARK   13  A    between atoms: _36  and  _37
REMARK   14  A    between atoms: _36  and  _39
REMARK   15  A    between atoms: _39  and  _40
REMARK   16  A    between atoms: _43  and  _45
REMARK   17  A    between atoms: _45  and  _46
REMARK   18  A    between atoms: _45  and  _48
REMARK   19  A    between atoms: _48  and  _49
REMARK   20  A    between atoms: _52  and  _54
REMARK   21  A    between atoms: _54  and  _55
REMARK   22  A    between atoms: _54  and  _57
REMARK   23  A    between atoms: _57  and  _58
REMARK   24  A    between atoms: _61  and  _63
REMARK   25  A    between atoms: _63  and  _64
REMARK   26  A    between atoms: _63  and  _66
REMARK   27  A    between atoms: _66  and  _67
REMARK   28  A    between atoms: _70  and  _72
REMARK   29  A    between atoms: _72  and  _73
REMARK   30  A    between atoms: _75  and  _77
REMARK   31  A    between atoms: _77  and  _78
REMARK   32  A    between atoms: _81  and  _83
REMARK   33  A    between atoms: _83  and  _84
REMARK   34  A    between atoms: _83  and  _86
REMARK   35  A    between atoms: _86  and  _87
REMARK   36  A    between atoms: _90  and  _92
REMARK   37  A    between atoms: _92  and  _93
REMARK   38  A    between atoms: _92  and  _95
REMARK   39  A    between atoms: _95  and  _96
REMARK   40  A    between atoms: _99  and  _101
REMARK   41  A    between atoms: _101  and  _102
REMARK   42  A    between atoms: _101  and  _104
REMARK   43  A    between atoms: _104  and  _105
REMARK   44  A    between atoms: _108  and  _110
REMARK   45  A    between atoms: _110  and  _111
REMARK   46  A    between atoms: _110  and  _113
REMARK   47  A    between atoms: _116  and  _118
REMARK   48  A    between atoms: _118  and  _119
REMARK   49  A    between atoms: _118  and  _121
REMARK   50  A    between atoms: _121  and  _122
REMARK   51  A    between atoms: _122  and  _123
REMARK   52  A    between atoms: _123  and  _124
REMARK   53  A    between atoms: _124  and  _125
REMARK   54  A    between atoms: _129  and  _131
REMARK   55  A    between atoms: _131  and  _132
REMARK   56  A    between atoms: _131  and  _134
REMARK   57  A    between atoms: _134  and  _135
REMARK   58  A    between atoms: _135  and  _136
REMARK   59  A    between atoms: _138  and  _140
REMARK   60  A    between atoms: _140  and  _141
REMARK   61  A    between atoms: _140  and  _143
REMARK   62  A    between atoms: _143  and  _144
REMARK   63  A    between atoms: _147  and  _149
REMARK   64  A    between atoms: _149  and  _150
REMARK   65  A    between atoms: _152  and  _154
REMARK   66  A    between atoms: _154  and  _155
REMARK   67  A    between atoms: _157  and  _159
REMARK   68  A    between atoms: _159  and  _160
REMARK   69  A    between atoms: _159  and  _162
REMARK   70  A    between atoms: _162  and  _163
REMARK   71  A    between atoms: _166  and  _168
REMARK   72  A    between atoms: _168  and  _169
REMARK   73  A    between atoms: _171  and  _173
REMARK   74  A    between atoms: _173  and  _174
REMARK   75  A    between atoms: _176  and  _178
REMARK   76  A    between atoms: _178  and  _179
REMARK   77  A    between atoms: _178  and  _181
REMARK   78  A    between atoms: _181  and  _182
REMARK   79  A    between atoms: _188  and  _190
REMARK   80  A    between atoms: _190  and  _191
REMARK   81  A    between atoms: _190  and  _193
REMARK   82  A    between atoms: _193  and  _194
REMARK   83  A    between atoms: _197  and  _199
REMARK   84  A    between atoms: _199  and  _200
REMARK   85  A    between atoms: _199  and  _202
REMARK   86  A    between atoms: _205  and  _207
REMARK   87  A    between atoms: _207  and  _208
REMARK   88  A    between atoms: _207  and  _210
REMARK   89  A    between atoms: _210  and  _211
REMARK   90  A    between atoms: _215  and  _216
REMARK   91  A    between atoms: _221  and  _223
REMARK   92  A    between atoms: _223  and  _224
REMARK   93  A    between atoms: _223  and  _226
REMARK   94  A    between atoms: _226  and  _227
REMARK   95  A    between atoms: _231  and  _232
REMARK   96  A    between atoms: _237  and  _239
REMARK   97  A    between atoms: _239  and  _240
REMARK   98  A    between atoms: _239  and  _242
REMARK   99  A    between atoms: _245  and  _247
REMARK  100  A    between atoms: _247  and  _248
REMARK  101  A    between atoms: _247  and  _250
REMARK  102  A    between atoms: _250  and  _251
REMARK  103  A    between atoms: _256  and  _258
REMARK  104  A    between atoms: _258  and  _259
REMARK  105  A    between atoms: _258  and  _261
REMARK  106  A    between atoms: _261  and  _262
REMARK  107  A    between atoms: _265  and  _267
REMARK  108  A    between atoms: _267  and  _268
REMARK  109  A    between atoms: _267  and  _270
REMARK  110  A    between atoms: _270  and  _271
REMARK  111  A    between atoms: _274  and  _276
REMARK  112  A    between atoms: _276  and  _277
REMARK  113  A    between atoms: _279  and  _281
REMARK  114  A    between atoms: _281  and  _282
REMARK  115  A    between atoms: _281  and  _284
REMARK  116  A    between atoms: _284  and  _285
REMARK  117  A    between atoms: _285  and  _286
REMARK  118  A    between atoms: _286  and  _287
REMARK  119  A    between atoms: _296  and  _298
REMARK  120  A    between atoms: _298  and  _299
REMARK  121  A    between atoms: _298  and  _301
REMARK  122  A    between atoms: _301  and  _302
REMARK  123  A    between atoms: _302  and  _303
REMARK  124  A    between atoms: _303  and  _304
REMARK  125  A    between atoms: _314  and  _315
REMARK  126  A    between atoms: _320  and  _322
REMARK  127  A    between atoms: _322  and  _323
REMARK  128  A    between atoms: _322  and  _325
REMARK  129  A    between atoms: _325  and  _326
REMARK  130  A    between atoms: _329  and  _331
REMARK  131  A    between atoms: _331  and  _332
REMARK  132  A    between atoms: _331  and  _334
REMARK  133  A    between atoms: _334  and  _335
REMARK  134  A    between atoms: _335  and  _336
REMARK  135  A    between atoms: _339  and  _341
REMARK  136  A    between atoms: _341  and  _342
REMARK  137  A    between atoms: _341  and  _344
REMARK  138  A    between atoms: _344  and  _345
REMARK  139  A    between atoms: _348  and  _350
REMARK  140  A    between atoms: _350  and  _351
REMARK  141  A    between atoms: _350  and  _353
REMARK  142  A    between atoms: _353  and  _354
REMARK  143  A    between atoms: _357  and  _359
REMARK  144  A    between atoms: _359  and  _360
REMARK  145  A    between atoms: _359  and  _362
REMARK  146  A    between atoms: _362  and  _363
REMARK  147  A    between atoms: _366  and  _368
REMARK  148  A    between atoms: _368  and  _369
REMARK  149  A    between atoms: _368  and  _371
REMARK  150  A    between atoms: _371  and  _372
REMARK  151  A    between atoms: _375  and  _377
REMARK  152  A    between atoms: _377  and  _378
REMARK  153  A    between atoms: _380  and  _382
REMARK  154  A    between atoms: _382  and  _383
REMARK  155  A    between atoms: _386  and  _388
REMARK  156  A    between atoms: _388  and  _389
REMARK  157  A    between atoms: _388  and  _391
REMARK  158  A    between atoms: _391  and  _392
REMARK  159  A    between atoms: _395  and  _397
REMARK  160  A    between atoms: _397  and  _398
REMARK  161  A    between atoms: _397  and  _400
REMARK  162  A    between atoms: _400  and  _401
REMARK  163  A    between atoms: _404  and  _406
REMARK  164  A    between atoms: _406  and  _407
REMARK  165  A    between atoms: _406  and  _409
REMARK  166  A    between atoms: _409  and  _410
REMARK  167  A    between atoms: _413  and  _415
REMARK  168  A    between atoms: _415  and  _416
REMARK  169  A    between atoms: _415  and  _418
REMARK  170  A    between atoms: _421  and  _423
REMARK  171  A    between atoms: _423  and  _424
REMARK  172  A    between atoms: _423  and  _426
REMARK  173  A    between atoms: _426  and  _427
REMARK  174  A    between atoms: _427  and  _428
REMARK  175  A    between atoms: _428  and  _429
REMARK  176  A    between atoms: _429  and  _430
REMARK  177  A    between atoms: _434  and  _436
REMARK  178  A    between atoms: _436  and  _437
REMARK  179  A    between atoms: _436  and  _439
REMARK  180  A    between atoms: _439  and  _440
REMARK  181  A    between atoms: _440  and  _441
REMARK  182  A    between atoms: _443  and  _445
REMARK  183  A    between atoms: _445  and  _446
REMARK  184  A    between atoms: _445  and  _448
REMARK  185  A    between atoms: _448  and  _449
REMARK  186  A    between atoms: _452  and  _454
REMARK  187  A    between atoms: _454  and  _455
REMARK  188  A    between atoms: _457  and  _459
REMARK  189  A    between atoms: _459  and  _460
REMARK  190  A    between atoms: _462  and  _464
REMARK  191  A    between atoms: _464  and  _465
REMARK  192  A    between atoms: _464  and  _467
REMARK  193  A    between atoms: _467  and  _468
REMARK  194  A    between atoms: _471  and  _473
REMARK  195  A    between atoms: _473  and  _474
REMARK  196  A    between atoms: _476  and  _478
REMARK  197  A    between atoms: _478  and  _479
REMARK  198  A    between atoms: _481  and  _483
REMARK  199  A    between atoms: _483  and  _484
REMARK  200  A    between atoms: _483  and  _486
REMARK  201  A    between atoms: _486  and  _487
REMARK  202  A    between atoms: _493  and  _495
REMARK  203  A    between atoms: _495  and  _496
REMARK  204  A    between atoms: _495  and  _498
REMARK  205  A    between atoms: _498  and  _499
REMARK  206  A    between atoms: _502  and  _504
REMARK  207  A    between atoms: _504  and  _505
REMARK  208  A    between atoms: _504  and  _507
REMARK  209  A    between atoms: _510  and  _512
REMARK  210  A    between atoms: _512  and  _513
REMARK  211  A    between atoms: _512  and  _515
REMARK  212  A    between atoms: _515  and  _516
REMARK  213  A    between atoms: _519  and  _521
REMARK  214  A    between atoms: _521  and  _522
REMARK  215  A    between atoms: _521  and  _524
REMARK  216  A    between atoms: _524  and  _525
REMARK  217  A    between atoms: _529  and  _530
REMARK  218  A    between atoms: _535  and  _537
REMARK  219  A    between atoms: _537  and  _538
REMARK  220  A    between atoms: _537  and  _540
REMARK  221  A    between atoms: _543  and  _545
REMARK  222  A    between atoms: _545  and  _546
REMARK  223  A    between atoms: _545  and  _548
REMARK  224  A    between atoms: _548  and  _549
REMARK  225  A    between atoms: _554  and  _556
REMARK  226  A    between atoms: _556  and  _557
REMARK  227  A    between atoms: _556  and  _559
REMARK  228  A    between atoms: _559  and  _560
REMARK  229  A    between atoms: _563  and  _565
REMARK  230  A    between atoms: _565  and  _566
REMARK  231  A    between atoms: _565  and  _568
REMARK  232  A    between atoms: _568  and  _569
REMARK  233  A    between atoms: _572  and  _574
REMARK  234  A    between atoms: _574  and  _575
REMARK  235  A    between atoms: _577  and  _579
REMARK  236  A    between atoms: _579  and  _580
REMARK  237  A    between atoms: _579  and  _582
REMARK  238  A    between atoms: _582  and  _583
REMARK  239  A    between atoms: _583  and  _584
REMARK  240  A    between atoms: _584  and  _585
REMARK                            x       y       z     vdW  Elec       q    Type
REMARK                         _______ _______ _______ _____ _____    ______ ____
ROOT
ATOM      1  C   GLY A   5       6.278  -2.400   8.600  0.00  0.00    +0.243 C 
ATOM      2  N   ILE A   6       6.826  -2.979   9.670  0.00  0.00    -0.297 N 
ATOM      3  H   ILE A   6       6.584  -2.655  10.628  0.00  0.00    +0.150 HD
ATOM      4  O   GLY A   5       6.657  -2.656   7.469  0.00  0.00    -0.273 OA
ENDROOT
BRANCH   2   5
ATOM      5  CA  ILE A   6       7.777  -4.082   9.471  0.00  0.00    +0.149 C 
BRANCH   5   6
ATOM      6  C   ILE A   6       7.135  -5.236   8.721  0.00  0.00    +0.241 C 
ATOM      7  O   ILE A   6       6.014  -5.673   8.945  0.00  0.00    -0.273 OA
ATOM      8  N   GLY A   7       7.873  -5.695   7.755  0.00  0.00    -0.295 N 
ATOM      9  H   GLY A   7       8.807  -5.301   7.524  0.00  0.00    +0.150 HD
BRANCH   8  10
ATOM     10  CA  GLY A   7       7.281  -6.811   7.020  0.00  0.00    +0.176 C 
BRANCH  10  11
ATOM     11  C   GLY A   7       6.561  -6.485   5.742  0.00  0.00    +0.243 C 
ATOM     12  N   GLY A   8       6.111  -5.258   5.635  0.00  0.00    -0.295 N 
ATOM     13  H   GLY A   8       6.296  -4.532   6.357  0.00  0.00    +0.150 HD
ATOM     14  O   GLY A   7       6.385  -7.313   4.873  0.00  0.00    -0.273 OA
BRANCH  12  15
ATOM     15  CA  GLY A   8       5.336  -4.984   4.438  0.00  0.00    +0.176 C 
BRANCH  15  16
ATOM     16  C   GLY A   8       4.011  -4.266   4.643  0.00  0.00    +0.243 C 
ATOM     17  O   GLY A   8       3.795  -3.558   5.616  0.00  0.00    -0.273 OA
ATOM     18  N   PHE A   9       3.157  -4.455   3.646  0.00  0.00    -0.297 N 
ATOM     19  H   PHE A   9       3.400  -5.133   2.895  0.00  0.00    +0.150 HD
BRANCH  18  20
ATOM     20  CA  PHE A   9       1.880  -3.736   3.571  0.00  0.00    +0.153 C 
BRANCH  20  21
ATOM     21  C   PHE A   9       0.719  -4.655   3.734  0.00  0.00    +0.241 C 
ATOM     22  N   ILE A  10      -0.264  -4.122   4.424  0.00  0.00    -0.298 N 
ATOM     23  H   ILE A  10      -0.133  -3.212   4.911  0.00  0.00    +0.150 HD
ATOM     24  O   PHE A   9       0.698  -5.776   3.256  0.00  0.00    -0.273 OA
BRANCH  22  25
ATOM     25  CA  ILE A  10      -1.540  -4.823   4.498  0.00  0.00    +0.137 C 
BRANCH  25  26
ATOM     26  C   ILE A  10      -2.645  -3.890   4.054  0.00  0.00    +0.227 C 
ATOM     27  O   ILE A  10      -2.546  -2.663   4.104  0.00  0.00    -0.286 OA
ENDBRANCH  25  26
BRANCH  25  28
ATOM     28  CB  ILE A  10      -1.837  -5.357   5.923  0.00  0.00    +0.026 C 
ATOM     29  CG2 ILE A  10      -0.772  -6.344   6.373  0.00  0.00    +0.002 C 
BRANCH  28  30
ATOM     30  CG1 ILE A  10      -2.006  -4.318   7.025  0.00  0.00    +0.002 C 
ATOM     31  CD1 ILE A  10      -2.622  -4.917   8.306  0.00  0.00    +0.000 C 
ENDBRANCH  28  30
ENDBRANCH  25  28
ENDBRANCH  22  25
ENDBRANCH  20  21
BRANCH  20  32
ATOM     32  CB  PHE A   9       1.617  -3.054   2.210  0.00  0.00    +0.055 C 
BRANCH  32  33
ATOM     33  CG  PHE A   9       2.552  -1.903   1.995  0.00  0.00    -0.020 A 
ATOM     34  CD2 PHE A   9       2.171  -0.594   2.361  0.00  0.00    -0.004 A 
ATOM     35  CE2 PHE A   9       3.089   0.469   2.219  0.00  0.00    -0.000 A 
ATOM     36  CZ  PHE A   9       4.378   0.215   1.720  0.00  0.00    -0.000 A 
ATOM     37  CE1 PHE A   9       4.750  -1.084   1.356  0.00  0.00    -0.000 A 
ATOM     38  CD1 PHE A   9       3.838  -2.138   1.489  0.00  0.00    -0.004 A 
ENDBRANCH  32  33
ENDBRANCH  20  32
ENDBRANCH  18  20
ENDBRANCH  15  16
ENDBRANCH  12  15
ENDBRANCH  10  11
ENDBRANCH   8  10
ENDBRANCH   5   6
BRANCH   5  39
ATOM     39  CB  ILE A   6       8.233  -4.590  10.848  0.00  0.00    +0.027 C 
ATOM     40  CG2 ILE A   6       8.875  -5.974  10.835  0.00  0.00    +0.002 C 
BRANCH  39  41
ATOM     41  CG1 ILE A   6       9.171  -3.620  11.560  0.00  0.00    +0.002 C 
ATOM     42  CD1 ILE A   6      10.545  -3.389  10.928  0.00  0.00    +0.000 C 
ENDBRANCH  39  41
ENDBRANCH   5  39
ENDBRANCH   2   5
BRANCH   1  43
ATOM     43  CA  GLY A   5       5.104  -1.459   8.795  0.00  0.00    +0.176 C 
BRANCH  43  46
ATOM     44  C   GLY A   4       3.318  -0.553   7.481  0.00  0.00    +0.243 C 
ATOM     45  O   GLY A   4       3.062   0.310   8.316  0.00  0.00    -0.273 OA
ATOM     46  N   GLY A   5       4.224  -1.486   7.617  0.00  0.00    -0.295 N 
ATOM     47  H   GLY A   5       4.321  -2.236   6.903  0.00  0.00    +0.150 HD
BRANCH  44  48
ATOM     48  CA  GLY A   4       2.656  -0.667   6.138  0.00  0.00    +0.176 C 
BRANCH  48  50
ATOM     49  C   ILE A   3       0.436  -0.315   5.575  0.00  0.00    +0.241 C 
ATOM     50  N   GLY A   4       1.531   0.224   5.963  0.00  0.00    -0.295 N 
ATOM     51  H   GLY A   4       1.607   1.246   6.142  0.00  0.00    +0.150 HD
ATOM     52  O   ILE A   3       0.351  -1.499   5.336  0.00  0.00    -0.273 OA
BRANCH  49  53
ATOM     53  CA  ILE A   3      -0.719   0.641   5.408  0.00  0.00    +0.149 C 
BRANCH  53  55
ATOM     54  C   MET A   2      -2.161   0.950   3.529  0.00  0.00    +0.241 C 
ATOM     55  N   ILE A   3      -1.663   0.110   4.410  0.00  0.00    -0.297 N 
ATOM     56  H   ILE A   3      -1.927  -0.896   4.402  0.00  0.00    +0.150 HD
ATOM     57  O   MET A   2      -1.904   2.146   3.526  0.00  0.00    -0.273 OA
BRANCH  54  58
ATOM     58  CA  MET A   2      -3.097   0.295   2.519  0.00  0.00    +0.149 C 
BRANCH  58  61
ATOM     59  C   LYS A   1      -5.447   0.686   2.416  0.00  0.00    +0.238 C 
ATOM     60  O   LYS A   1      -5.672  -0.477   2.702  0.00  0.00    -0.274 OA
ATOM     61  N   MET A   2      -4.246   1.142   2.205  0.00  0.00    -0.297 N 
ATOM     62  H   MET A   2      -4.106   2.097   1.818  0.00  0.00    +0.150 HD
BRANCH  59  63
ATOM     63  CA  LYS A   1      -6.543   1.713   2.291  0.00  0.00    +0.145 C 
BRANCH  63  64
ATOM     64  N   LYS A   1      -7.823   1.049   2.141  0.00  0.00    -0.238 NA
ATOM     65  H   LYS A   1      -8.010   0.182   2.684  0.00  0.00    +0.142 HD
ENDBRANCH  63  64
BRANCH  63  66
ATOM     66  CB  LYS A   1      -6.625   2.528   3.567  0.00  0.00    +0.026 C 
BRANCH  66  67
ATOM     67  CG  LYS A   1      -5.648   3.665   3.574  0.00  0.00    -0.000 C 
BRANCH  67  68
ATOM     68  CD  LYS A   1      -5.471   4.123   5.001  0.00  0.00    -0.024 C 
BRANCH  68  69
ATOM     69  CE  LYS A   1      -4.232   5.020   5.065  0.00  0.00    -0.086 C 
BRANCH  69  70
ATOM     70  NZ  LYS A   1      -4.173   5.727   6.357  0.00  0.00    +0.380 N 
ATOM     71  HZ1 LYS A   1      -4.128   5.032   7.129  0.00  0.00    -0.089 HD
ATOM     72  HZ2 LYS A   1      -5.023   6.316   6.468  0.00  0.00    -0.089 HD
ATOM     73  HZ3 LYS A   1      -3.326   6.330   6.382  0.00  0.00    -0.089 HD
ENDBRANCH  69  70
ENDBRANCH  68  69
ENDBRANCH  67  68
ENDBRANCH  66  67
ENDBRANCH  63  66
ENDBRANCH  59  63
ENDBRANCH  58  61
BRANCH  58  74
ATOM     74  CB  MET A   2      -2.201   0.025   1.303  0.00  0.00    +0.041 C 
BRANCH  74  75
ATOM     75  CG  MET A   2      -2.899  -0.474   0.038  0.00  0.00    +0.060 C 
BRANCH  75  76
ATOM     76  SD  MET A   2      -2.685  -2.206  -0.150  0.00  0.00    -0.139 S 
ATOM     77  CE  MET A   2      -0.912  -2.093   0.006  0.00  0.00    +0.069 C 
ENDBRANCH  75  76
ENDBRANCH  74  75
ENDBRANCH  58  74
ENDBRANCH  54  58
ENDBRANCH  53  55
BRANCH  53  78
ATOM     78  CB  ILE A   3      -1.427   0.834   6.775  0.00  0.00    +0.027 C 
ATOM     79  CG2 ILE A   3      -2.379   2.068   6.783  0.00  0.00    +0.002 C 
BRANCH  78  80
ATOM     80  CG1 ILE A   3      -2.157  -0.460   7.194  0.00  0.00    +0.002 C 
ATOM     81  CD1 ILE A   3      -1.709  -1.047   8.515  0.00  0.00    +0.000 C 
ENDBRANCH  78  80
ENDBRANCH  53  78
ENDBRANCH  49  53
ENDBRANCH  48  50
ENDBRANCH  44  48
ENDBRANCH  43  46
ENDBRANCH   1  43
TORSDOF 36
REMARK  Name = ../refined-set-2016/1hvk/1hvk_pocket.pdb
REMARK  240 active torsions:
REMARK  status: ('A' for Active; 'I' for Inactive)
REMARK    1  A    between atoms: _1  and  _3
REMARK    2  A    between atoms: _3  and  _4
REMARK    3  A    between atoms: _3  and  _6
REMARK    4  A    between atoms: _6  and  _7
REMARK    5  A    between atoms: _7  and  _8
REMARK    6  A    between atoms: _8  and  _9
REMARK    7  A    between atoms: _19  and  _20
REMARK    8  A    between atoms: _25  and  _27
REMARK    9  A    between atoms: _27  and  _28
REMARK   10  A    between atoms: _27  and  _30
REMARK   11  A    between atoms: _30  and  _31
REMARK   12  A    between atoms: _34  and  _36
REMARK   13  A    between atoms: _36  and  _37
REMARK   14  A    between atoms: _36  and  _39
REMARK   15  A    between atoms: _39  and  _40
REMARK   16  A    between atoms: _43  and  _45
REMARK   17  A    between atoms: _45  and  _46
REMARK   18  A    between atoms: _45  and  _48
REMARK   19  A    between atoms: _48  and  _49
REMARK   20  A    between atoms: _52  and  _54
REMARK   21  A    between atoms: _54  and  _55
REMARK   22  A    between atoms: _54  and  _57
REMARK   23  A    between atoms: _57  and  _58
REMARK   24  A    between atoms: _61  and  _63
REMARK   25  A    between atoms: _63  and  _64
REMARK   26  A    between atoms: _63  and  _66
REMARK   27  A    between atoms: _66  and  _67
REMARK   28  A    between atoms: _70  and  _72
REMARK   29  A    between atoms: _72  and  _73
REMARK   30  A    between atoms: _75  and  _77
REMARK   31  A    between atoms: _77  and  _78
REMARK   32  A    between atoms: _81  and  _83
REMARK   33  A    between atoms: _83  and  _84
REMARK   34  A    between atoms: _83  and  _86
REMARK   35  A    between atoms: _86  and  _87
REMARK   36  A    between atoms: _90  and  _92
REMARK   37  A    between atoms: _92  and  _93
REMARK   38  A    between atoms: _92  and  _95
REMARK   39  A    between atoms: _95  and  _96
REMARK   40  A    between atoms: _99  and  _101
REMARK   41  A    between atoms: _101  and  _102
REMARK   42  A    between atoms: _101  and  _104
REMARK   43  A    between atoms: _104  and  _105
REMARK   44  A    between atoms: _108  and  _110
REMARK   45  A    between atoms: _110  and  _111
REMARK   46  A    between atoms: _110  and  _113
REMARK   47  A    between atoms: _116  and  _118
REMARK   48  A    between atoms: _118  and  _119
REMARK   49  A    between atoms: _118  and  _121
REMARK   50  A    between atoms: _121  and  _122
REMARK   51  A    between atoms: _122  and  _123
REMARK   52  A    between atoms: _123  and  _124
REMARK   53  A    between atoms: _124  and  _125
REMARK   54  A    between atoms: _129  and  _131
REMARK   55  A    between atoms: _131  and  _132
REMARK   56  A    between atoms: _131  and  _134
REMARK   57  A    between atoms: _134  and  _135
REMARK   58  A    between atoms: _135  and  _136
REMARK   59  A    between atoms: _138  and  _140
REMARK   60  A    between atoms: _140  and  _141
REMARK   61  A    between atoms: _140  and  _143
REMARK   62  A    between atoms: _143  and  _144
REMARK   63  A    between atoms: _147  and  _149
REMARK   64  A    between atoms: _149  and  _150
REMARK   65  A    between atoms: _152  and  _154
REMARK   66  A    between atoms: _154  and  _155
REMARK   67  A    between atoms: _157  and  _159
REMARK   68  A    between atoms: _159  and  _160
REMARK   69  A    between atoms: _159  and  _162
REMARK   70  A    between atoms: _162  and  _163
REMARK   71  A    between atoms: _166  and  _168
REMARK   72  A    between atoms: _168  and  _169
REMARK   73  A    between atoms: _171  and  _173
REMARK   74  A    between atoms: _173  and  _174
REMARK   75  A    between atoms: _176  and  _178
REMARK   76  A    between atoms: _178  and  _179
REMARK   77  A    between atoms: _178  and  _181
REMARK   78  A    between atoms: _181  and  _182
REMARK   79  A    between atoms: _188  and  _190
REMARK   80  A    between atoms: _190  and  _191
REMARK   81  A    between atoms: _190  and  _193
REMARK   82  A    between atoms: _193  and  _194
REMARK   83  A    between atoms: _197  and  _199
REMARK   84  A    between atoms: _199  and  _200
REMARK   85  A    between atoms: _199  and  _202
REMARK   86  A    between atoms: _205  and  _207
REMARK   87  A    between atoms: _207  and  _208
REMARK   88  A    between atoms: _207  and  _210
REMARK   89  A    between atoms: _210  and  _211
REMARK   90  A    between atoms: _215  and  _216
REMARK   91  A    between atoms: _221  and  _223
REMARK   92  A    between atoms: _223  and  _224
REMARK   93  A    between atoms: _223  and  _226
REMARK   94  A    between atoms: _226  and  _227
REMARK   95  A    between atoms: _231  and  _232
REMARK   96  A    between atoms: _237  and  _239
REMARK   97  A    between atoms: _239  and  _240
REMARK   98  A    between atoms: _239  and  _242
REMARK   99  A    between atoms: _245  and  _247
REMARK  100  A    between atoms: _247  and  _248
REMARK  101  A    between atoms: _247  and  _250
REMARK  102  A    between atoms: _250  and  _251
REMARK  103  A    between atoms: _256  and  _258
REMARK  104  A    between atoms: _258  and  _259
REMARK  105  A    between atoms: _258  and  _261
REMARK  106  A    between atoms: _261  and  _262
REMARK  107  A    between atoms: _265  and  _267
REMARK  108  A    between atoms: _267  and  _268
REMARK  109  A    between atoms: _267  and  _270
REMARK  110  A    between atoms: _270  and  _271
REMARK  111  A    between atoms: _274  and  _276
REMARK  112  A    between atoms: _276  and  _277
REMARK  113  A    between atoms: _279  and  _281
REMARK  114  A    between atoms: _281  and  _282
REMARK  115  A    between atoms: _281  and  _284
REMARK  116  A    between atoms: _284  and  _285
REMARK  117  A    between atoms: _285  and  _286
REMARK  118  A    between atoms: _286  and  _287
REMARK  119  A    between atoms: _296  and  _298
REMARK  120  A    between atoms: _298  and  _299
REMARK  121  A    between atoms: _298  and  _301
REMARK  122  A    between atoms: _301  and  _302
REMARK  123  A    between atoms: _302  and  _303
REMARK  124  A    between atoms: _303  and  _304
REMARK  125  A    between atoms: _314  and  _315
REMARK  126  A    between atoms: _320  and  _322
REMARK  127  A    between atoms: _322  and  _323
REMARK  128  A    between atoms: _322  and  _325
REMARK  129  A    between atoms: _325  and  _326
REMARK  130  A    between atoms: _329  and  _331
REMARK  131  A    between atoms: _331  and  _332
REMARK  132  A    between atoms: _331  and  _334
REMARK  133  A    between atoms: _334  and  _335
REMARK  134  A    between atoms: _335  and  _336
REMARK  135  A    between atoms: _339  and  _341
REMARK  136  A    between atoms: _341  and  _342
REMARK  137  A    between atoms: _341  and  _344
REMARK  138  A    between atoms: _344  and  _345
REMARK  139  A    between atoms: _348  and  _350
REMARK  140  A    between atoms: _350  and  _351
REMARK  141  A    between atoms: _350  and  _353
REMARK  142  A    between atoms: _353  and  _354
REMARK  143  A    between atoms: _357  and  _359
REMARK  144  A    between atoms: _359  and  _360
REMARK  145  A    between atoms: _359  and  _362
REMARK  146  A    between atoms: _362  and  _363
REMARK  147  A    between atoms: _366  and  _368
REMARK  148  A    between atoms: _368  and  _369
REMARK  149  A    between atoms: _368  and  _371
REMARK  150  A    between atoms: _371  and  _372
REMARK  151  A    between atoms: _375  and  _377
REMARK  152  A    between atoms: _377  and  _378
REMARK  153  A    between atoms: _380  and  _382
REMARK  154  A    between atoms: _382  and  _383
REMARK  155  A    between atoms: _386  and  _388
REMARK  156  A    between atoms: _388  and  _389
REMARK  157  A    between atoms: _388  and  _391
REMARK  158  A    between atoms: _391  and  _392
REMARK  159  A    between atoms: _395  and  _397
REMARK  160  A    between atoms: _397  and  _398
REMARK  161  A    between atoms: _397  and  _400
REMARK  162  A    between atoms: _400  and  _401
REMARK  163  A    between atoms: _404  and  _406
REMARK  164  A    between atoms: _406  and  _407
REMARK  165  A    between atoms: _406  and  _409
REMARK  166  A    between atoms: _409  and  _410
REMARK  167  A    between atoms: _413  and  _415
REMARK  168  A    between atoms: _415  and  _416
REMARK  169  A    between atoms: _415  and  _418
REMARK  170  A    between atoms: _421  and  _423
REMARK  171  A    between atoms: _423  and  _424
REMARK  172  A    between atoms: _423  and  _426
REMARK  173  A    between atoms: _426  and  _427
REMARK  174  A    between atoms: _427  and  _428
REMARK  175  A    between atoms: _428  and  _429
REMARK  176  A    between atoms: _429  and  _430
REMARK  177  A    between atoms: _434  and  _436
REMARK  178  A    between atoms: _436  and  _437
REMARK  179  A    between atoms: _436  and  _439
REMARK  180  A    between atoms: _439  and  _440
REMARK  181  A    between atoms: _440  and  _441
REMARK  182  A    between atoms: _443  and  _445
REMARK  183  A    between atoms: _445  and  _446
REMARK  184  A    between atoms: _445  and  _448
REMARK  185  A    between atoms: _448  and  _449
REMARK  186  A    between atoms: _452  and  _454
REMARK  187  A    between atoms: _454  and  _455
REMARK  188  A    between atoms: _457  and  _459
REMARK  189  A    between atoms: _459  and  _460
REMARK  190  A    between atoms: _462  and  _464
REMARK  191  A    between atoms: _464  and  _465
REMARK  192  A    between atoms: _464  and  _467
REMARK  193  A    between atoms: _467  and  _468
REMARK  194  A    between atoms: _471  and  _473
REMARK  195  A    between atoms: _473  and  _474
REMARK  196  A    between atoms: _476  and  _478
REMARK  197  A    between atoms: _478  and  _479
REMARK  198  A    between atoms: _481  and  _483
REMARK  199  A    between atoms: _483  and  _484
REMARK  200  A    between atoms: _483  and  _486
REMARK  201  A    between atoms: _486  and  _487
REMARK  202  A    between atoms: _493  and  _495
REMARK  203  A    between atoms: _495  and  _496
REMARK  204  A    between atoms: _495  and  _498
REMARK  205  A    between atoms: _498  and  _499
REMARK  206  A    between atoms: _502  and  _504
REMARK  207  A    between atoms: _504  and  _505
REMARK  208  A    between atoms: _504  and  _507
REMARK  209  A    between atoms: _510  and  _512
REMARK  210  A    between atoms: _512  and  _513
REMARK  211  A    between atoms: _512  and  _515
REMARK  212  A    between atoms: _515  and  _516
REMARK  213  A    between atoms: _519  and  _521
REMARK  214  A    between atoms: _521  and  _522
REMARK  215  A    between atoms: _521  and  _524
REMARK  216  A    between atoms: _524  and  _525
REMARK  217  A    between atoms: _529  and  _530
REMARK  218  A    between atoms: _535  and  _537
REMARK  219  A    between atoms: _537  and  _538
REMARK  220  A    between atoms: _537  and  _540
REMARK  221  A    between atoms: _543  and  _545
REMARK  222  A    between atoms: _545  and  _546
REMARK  223  A    between atoms: _545  and  _548
REMARK  224  A    between atoms: _548  and  _549
REMARK  225  A    between atoms: _554  and  _556
REMARK  226  A    between atoms: _556  and  _557
REMARK  227  A    between atoms: _556  and  _559
REMARK  228  A    between atoms: _559  and  _560
REMARK  229  A    between atoms: _563  and  _565
REMARK  230  A    between atoms: _565  and  _566
REMARK  231  A    between atoms: _565  and  _568
REMARK  232  A    between atoms: _568  and  _569
REMARK  233  A    between atoms: _572  and  _574
REMARK  234  A    between atoms: _574  and  _575
REMARK  235  A    between atoms: _577  and  _579
REMARK  236  A    between atoms: _579  and  _580
REMARK  237  A    between atoms: _579  and  _582
REMARK  238  A    between atoms: _582  and  _583
REMARK  239  A    between atoms: _583  and  _584
REMARK  240  A    between atoms: _584  and  _585
REMARK                            x       y       z     vdW  Elec       q    Type
REMARK                         _______ _______ _______ _____ _____    ______ ____
ROOT
ATOM      1  CA  VAL A   1      -7.335  -2.305   5.576  0.00  0.00    +0.133 C 
ENDROOT
BRANCH   1   2
ATOM      2  CB  VAL A   1      -6.694  -1.527   6.729  0.00  0.00    +0.023 C 
ATOM      3  CG2 VAL A   1      -5.608  -2.339   7.451  0.00  0.00    +0.002 C 
ATOM      4  CG1 VAL A   1      -6.200  -0.157   6.233  0.00  0.00    +0.002 C 
ENDBRANCH   1   2
BRANCH   1   5
ATOM      5  N   VAL A   1      -6.358  -2.466   4.495  0.00  0.00    -0.239 NA
ATOM      6  H   VAL A   1      -6.035  -1.651   3.936  0.00  0.00    +0.142 HD
ENDBRANCH   1   5
BRANCH   1   7
ATOM      7  C   VAL A   1      -8.566  -1.525   5.108  0.00  0.00    +0.224 C 
ATOM      8  O   VAL A   1      -8.586  -0.919   4.051  0.00  0.00    -0.287 OA
ENDBRANCH   1   7
TORSDOF 3
REMARK  Name = ../refined-set-2016/1hvk/1hvk_pocket.pdb
REMARK  240 active torsions:
REMARK  status: ('A' for Active; 'I' for Inactive)
REMARK    1  A    between atoms: _1  and  _3
REMARK    2  A    between atoms: _3  and  _4
REMARK    3  A    between atoms: _3  and  _6
REMARK    4  A    between atoms: _6  and  _7
REMARK    5  A    between atoms: _7  and  _8
REMARK    6  A    between atoms: _8  and  _9
REMARK    7  A    between atoms: _19  and  _20
REMARK    8  A    between atoms: _25  and  _27
REMARK    9  A    between atoms: _27  and  _28
REMARK   10  A    between atoms: _27  and  _30
REMARK   11  A    between atoms: _30  and  _31
REMARK   12  A    between atoms: _34  and  _36
REMARK   13  A    between atoms: _36  and  _37
REMARK   14  A    between atoms: _36  and  _39
REMARK   15  A    between atoms: _39  and  _40
REMARK   16  A    between atoms: _43  and  _45
REMARK   17  A    between atoms: _45  and  _46
REMARK   18  A    between atoms: _45  and  _48
REMARK   19  A    between atoms: _48  and  _49
REMARK   20  A    between atoms: _52  and  _54
REMARK   21  A    between atoms: _54  and  _55
REMARK   22  A    between atoms: _54  and  _57
REMARK   23  A    between atoms: _57  and  _58
REMARK   24  A    between atoms: _61  and  _63
REMARK   25  A    between atoms: _63  and  _64
REMARK   26  A    between atoms: _63  and  _66
REMARK   27  A    between atoms: _66  and  _67
REMARK   28  A    between atoms: _70  and  _72
REMARK   29  A    between atoms: _72  and  _73
REMARK   30  A    between atoms: _75  and  _77
REMARK   31  A    between atoms: _77  and  _78
REMARK   32  A    between atoms: _81  and  _83
REMARK   33  A    between atoms: _83  and  _84
REMARK   34  A    between atoms: _83  and  _86
REMARK   35  A    between atoms: _86  and  _87
REMARK   36  A    between atoms: _90  and  _92
REMARK   37  A    between atoms: _92  and  _93
REMARK   38  A    between atoms: _92  and  _95
REMARK   39  A    between atoms: _95  and  _96
REMARK   40  A    between atoms: _99  and  _101
REMARK   41  A    between atoms: _101  and  _102
REMARK   42  A    between atoms: _101  and  _104
REMARK   43  A    between atoms: _104  and  _105
REMARK   44  A    between atoms: _108  and  _110
REMARK   45  A    between atoms: _110  and  _111
REMARK   46  A    between atoms: _110  and  _113
REMARK   47  A    between atoms: _116  and  _118
REMARK   48  A    between atoms: _118  and  _119
REMARK   49  A    between atoms: _118  and  _121
REMARK   50  A    between atoms: _121  and  _122
REMARK   51  A    between atoms: _122  and  _123
REMARK   52  A    between atoms: _123  and  _124
REMARK   53  A    between atoms: _124  and  _125
REMARK   54  A    between atoms: _129  and  _131
REMARK   55  A    between atoms: _131  and  _132
REMARK   56  A    between atoms: _131  and  _134
REMARK   57  A    between atoms: _134  and  _135
REMARK   58  A    between atoms: _135  and  _136
REMARK   59  A    between atoms: _138  and  _140
REMARK   60  A    between atoms: _140  and  _141
REMARK   61  A    between atoms: _140  and  _143
REMARK   62  A    between atoms: _143  and  _144
REMARK   63  A    between atoms: _147  and  _149
REMARK   64  A    between atoms: _149  and  _150
REMARK   65  A    between atoms: _152  and  _154
REMARK   66  A    between atoms: _154  and  _155
REMARK   67  A    between atoms: _157  and  _159
REMARK   68  A    between atoms: _159  and  _160
REMARK   69  A    between atoms: _159  and  _162
REMARK   70  A    between atoms: _162  and  _163
REMARK   71  A    between atoms: _166  and  _168
REMARK   72  A    between atoms: _168  and  _169
REMARK   73  A    between atoms: _171  and  _173
REMARK   74  A    between atoms: _173  and  _174
REMARK   75  A    between atoms: _176  and  _178
REMARK   76  A    between atoms: _178  and  _179
REMARK   77  A    between atoms: _178  and  _181
REMARK   78  A    between atoms: _181  and  _182
REMARK   79  A    between atoms: _188  and  _190
REMARK   80  A    between atoms: _190  and  _191
REMARK   81  A    between atoms: _190  and  _193
REMARK   82  A    between atoms: _193  and  _194
REMARK   83  A    between atoms: _197  and  _199
REMARK   84  A    between atoms: _199  and  _200
REMARK   85  A    between atoms: _199  and  _202
REMARK   86  A    between atoms: _205  and  _207
REMARK   87  A    between atoms: _207  and  _208
REMARK   88  A    between atoms: _207  and  _210
REMARK   89  A    between atoms: _210  and  _211
REMARK   90  A    between atoms: _215  and  _216
REMARK   91  A    between atoms: _221  and  _223
REMARK   92  A    between atoms: _223  and  _224
REMARK   93  A    between atoms: _223  and  _226
REMARK   94  A    between atoms: _226  and  _227
REMARK   95  A    between atoms: _231  and  _232
REMARK   96  A    between atoms: _237  and  _239
REMARK   97  A    between atoms: _239  and  _240
REMARK   98  A    between atoms: _239  and  _242
REMARK   99  A    between atoms: _245  and  _247
REMARK  100  A    between atoms: _247  and  _248
REMARK  101  A    between atoms: _247  and  _250
REMARK  102  A    between atoms: _250  and  _251
REMARK  103  A    between atoms: _256  and  _258
REMARK  104  A    between atoms: _258  and  _259
REMARK  105  A    between atoms: _258  and  _261
REMARK  106  A    between atoms: _261  and  _262
REMARK  107  A    between atoms: _265  and  _267
REMARK  108  A    between atoms: _267  and  _268
REMARK  109  A    between atoms: _267  and  _270
REMARK  110  A    between atoms: _270  and  _271
REMARK  111  A    between atoms: _274  and  _276
REMARK  112  A    between atoms: _276  and  _277
REMARK  113  A    between atoms: _279  and  _281
REMARK  114  A    between atoms: _281  and  _282
REMARK  115  A    between atoms: _281  and  _284
REMARK  116  A    between atoms: _284  and  _285
REMARK  117  A    between atoms: _285  and  _286
REMARK  118  A    between atoms: _286  and  _287
REMARK  119  A    between atoms: _296  and  _298
REMARK  120  A    between atoms: _298  and  _299
REMARK  121  A    between atoms: _298  and  _301
REMARK  122  A    between atoms: _301  and  _302
REMARK  123  A    between atoms: _302  and  _303
REMARK  124  A    between atoms: _303  and  _304
REMARK  125  A    between atoms: _314  and  _315
REMARK  126  A    between atoms: _320  and  _322
REMARK  127  A    between atoms: _322  and  _323
REMARK  128  A    between atoms: _322  and  _325
REMARK  129  A    between atoms: _325  and  _326
REMARK  130  A    between atoms: _329  and  _331
REMARK  131  A    between atoms: _331  and  _332
REMARK  132  A    between atoms: _331  and  _334
REMARK  133  A    between atoms: _334  and  _335
REMARK  134  A    between atoms: _335  and  _336
REMARK  135  A    between atoms: _339  and  _341
REMARK  136  A    between atoms: _341  and  _342
REMARK  137  A    between atoms: _341  and  _344
REMARK  138  A    between atoms: _344  and  _345
REMARK  139  A    between atoms: _348  and  _350
REMARK  140  A    between atoms: _350  and  _351
REMARK  141  A    between atoms: _350  and  _353
REMARK  142  A    between atoms: _353  and  _354
REMARK  143  A    between atoms: _357  and  _359
REMARK  144  A    between atoms: _359  and  _360
REMARK  145  A    between atoms: _359  and  _362
REMARK  146  A    between atoms: _362  and  _363
REMARK  147  A    between atoms: _366  and  _368
REMARK  148  A    between atoms: _368  and  _369
REMARK  149  A    between atoms: _368  and  _371
REMARK  150  A    between atoms: _371  and  _372
REMARK  151  A    between atoms: _375  and  _377
REMARK  152  A    between atoms: _377  and  _378
REMARK  153  A    between atoms: _380  and  _382
REMARK  154  A    between atoms: _382  and  _383
REMARK  155  A    between atoms: _386  and  _388
REMARK  156  A    between atoms: _388  and  _389
REMARK  157  A    between atoms: _388  and  _391
REMARK  158  A    between atoms: _391  and  _392
REMARK  159  A    between atoms: _395  and  _397
REMARK  160  A    between atoms: _397  and  _398
REMARK  161  A    between atoms: _397  and  _400
REMARK  162  A    between atoms: _400  and  _401
REMARK  163  A    between atoms: _404  and  _406
REMARK  164  A    between atoms: _406  and  _407
REMARK  165  A    between atoms: _406  and  _409
REMARK  166  A    between atoms: _409  and  _410
REMARK  167  A    between atoms: _413  and  _415
REMARK  168  A    between atoms: _415  and  _416
REMARK  169  A    between atoms: _415  and  _418
REMARK  170  A    between atoms: _421  and  _423
REMARK  171  A    between atoms: _423  and  _424
REMARK  172  A    between atoms: _423  and  _426
REMARK  173  A    between atoms: _426  and  _427
REMARK  174  A    between atoms: _427  and  _428
REMARK  175  A    between atoms: _428  and  _429
REMARK  176  A    between atoms: _429  and  _430
REMARK  177  A    between atoms: _434  and  _436
REMARK  178  A    between atoms: _436  and  _437
REMARK  179  A    between atoms: _436  and  _439
REMARK  180  A    between atoms: _439  and  _440
REMARK  181  A    between atoms: _440  and  _441
REMARK  182  A    between atoms: _443  and  _445
REMARK  183  A    between atoms: _445  and  _446
REMARK  184  A    between atoms: _445  and  _448
REMARK  185  A    between atoms: _448  and  _449
REMARK  186  A    between atoms: _452  and  _454
REMARK  187  A    between atoms: _454  and  _455
REMARK  188  A    between atoms: _457  and  _459
REMARK  189  A    between atoms: _459  and  _460
REMARK  190  A    between atoms: _462  and  _464
REMARK  191  A    between atoms: _464  and  _465
REMARK  192  A    between atoms: _464  and  _467
REMARK  193  A    between atoms: _467  and  _468
REMARK  194  A    between atoms: _471  and  _473
REMARK  195  A    between atoms: _473  and  _474
REMARK  196  A    between atoms: _476  and  _478
REMARK  197  A    between atoms: _478  and  _479
REMARK  198  A    between atoms: _481  and  _483
REMARK  199  A    between atoms: _483  and  _484
REMARK  200  A    between atoms: _483  and  _486
REMARK  201  A    between atoms: _486  and  _487
REMARK  202  A    between atoms: _493  and  _495
REMARK  203  A    between atoms: _495  and  _496
REMARK  204  A    between atoms: _495  and  _498
REMARK  205  A    between atoms: _498  and  _499
REMARK  206  A    between atoms: _502  and  _504
REMARK  207  A    between atoms: _504  and  _505
REMARK  208  A    between atoms: _504  and  _507
REMARK  209  A    between atoms: _510  and  _512
REMARK  210  A    between atoms: _512  and  _513
REMARK  211  A    between atoms: _512  and  _515
REMARK  212  A    between atoms: _515  and  _516
REMARK  213  A    between atoms: _519  and  _521
REMARK  214  A    between atoms: _521  and  _522
REMARK  215  A    between atoms: _521  and  _524
REMARK  216  A    between atoms: _524  and  _525
REMARK  217  A    between atoms: _529  and  _530
REMARK  218  A    between atoms: _535  and  _537
REMARK  219  A    between atoms: _537  and  _538
REMARK  220  A    between atoms: _537  and  _540
REMARK  221  A    between atoms: _543  and  _545
REMARK  222  A    between atoms: _545  and  _546
REMARK  223  A    between atoms: _545  and  _548
REMARK  224  A    between atoms: _548  and  _549
REMARK  225  A    between atoms: _554  and  _556
REMARK  226  A    between atoms: _556  and  _557
REMARK  227  A    between atoms: _556  and  _559
REMARK  228  A    between atoms: _559  and  _560
REMARK  229  A    between atoms: _563  and  _565
REMARK  230  A    between atoms: _565  and  _566
REMARK  231  A    between atoms: _565  and  _568
REMARK  232  A    between atoms: _568  and  _569
REMARK  233  A    between atoms: _572  and  _574
REMARK  234  A    between atoms: _574  and  _575
REMARK  235  A    between atoms: _577  and  _579
REMARK  236  A    between atoms: _579  and  _580
REMARK  237  A    between atoms: _579  and  _582
REMARK  238  A    between atoms: _582  and  _583
REMARK  239  A    between atoms: _583  and  _584
REMARK  240  A    between atoms: _584  and  _585
REMARK                            x       y       z     vdW  Elec       q    Type
REMARK                         _______ _______ _______ _____ _____    ______ ____
ROOT
ATOM      1  CA  LEU A   1      -8.474   1.275  10.381  0.00  0.00    +0.133 C 
ENDROOT
BRANCH   1   2
ATOM      2  N   LEU A   1      -8.641   2.276  11.433  0.00  0.00    -0.239 NA
ATOM      3  H   LEU A   1      -7.871   2.461  12.107  0.00  0.00    +0.142 HD
ENDBRANCH   1   2
BRANCH   1   4
ATOM      4  C   LEU A   1      -8.739  -0.137  10.924  0.00  0.00    +0.224 C 
ATOM      5  O   LEU A   1      -8.292  -0.537  11.986  0.00  0.00    -0.287 OA
ENDBRANCH   1   4
BRANCH   1   6
ATOM      6  CB  LEU A   1      -7.030   1.335   9.852  0.00  0.00    +0.025 C 
BRANCH   6   7
ATOM      7  CG  LEU A   1      -6.504   2.731   9.512  0.00  0.00    +0.002 C 
ATOM      8  CD2 LEU A   1      -5.037   2.643   9.121  0.00  0.00    +0.000 C 
ATOM      9  CD1 LEU A   1      -7.277   3.401   8.380  0.00  0.00    +0.000 C 
ENDBRANCH   6   7
ENDBRANCH   1   6
TORSDOF 4
REMARK  Name = ../refined-set-2016/1hvk/1hvk_pocket.pdb
REMARK  240 active torsions:
REMARK  status: ('A' for Active; 'I' for Inactive)
REMARK    1  A    between atoms: _1  and  _3
REMARK    2  A    between atoms: _3  and  _4
REMARK    3  A    between atoms: _3  and  _6
REMARK    4  A    between atoms: _6  and  _7
REMARK    5  A    between atoms: _7  and  _8
REMARK    6  A    between atoms: _8  and  _9
REMARK    7  A    between atoms: _19  and  _20
REMARK    8  A    between atoms: _25  and  _27
REMARK    9  A    between atoms: _27  and  _28
REMARK   10  A    between atoms: _27  and  _30
REMARK   11  A    between atoms: _30  and  _31
REMARK   12  A    between atoms: _34  and  _36
REMARK   13  A    between atoms: _36  and  _37
REMARK   14  A    between atoms: _36  and  _39
REMARK   15  A    between atoms: _39  and  _40
REMARK   16  A    between atoms: _43  and  _45
REMARK   17  A    between atoms: _45  and  _46
REMARK   18  A    between atoms: _45  and  _48
REMARK   19  A    between atoms: _48  and  _49
REMARK   20  A    between atoms: _52  and  _54
REMARK   21  A    between atoms: _54  and  _55
REMARK   22  A    between atoms: _54  and  _57
REMARK   23  A    between atoms: _57  and  _58
REMARK   24  A    between atoms: _61  and  _63
REMARK   25  A    between atoms: _63  and  _64
REMARK   26  A    between atoms: _63  and  _66
REMARK   27  A    between atoms: _66  and  _67
REMARK   28  A    between atoms: _70  and  _72
REMARK   29  A    between atoms: _72  and  _73
REMARK   30  A    between atoms: _75  and  _77
REMARK   31  A    between atoms: _77  and  _78
REMARK   32  A    between atoms: _81  and  _83
REMARK   33  A    between atoms: _83  and  _84
REMARK   34  A    between atoms: _83  and  _86
REMARK   35  A    between atoms: _86  and  _87
REMARK   36  A    between atoms: _90  and  _92
REMARK   37  A    between atoms: _92  and  _93
REMARK   38  A    between atoms: _92  and  _95
REMARK   39  A    between atoms: _95  and  _96
REMARK   40  A    between atoms: _99  and  _101
REMARK   41  A    between atoms: _101  and  _102
REMARK   42  A    between atoms: _101  and  _104
REMARK   43  A    between atoms: _104  and  _105
REMARK   44  A    between atoms: _108  and  _110
REMARK   45  A    between atoms: _110  and  _111
REMARK   46  A    between atoms: _110  and  _113
REMARK   47  A    between atoms: _116  and  _118
REMARK   48  A    between atoms: _118  and  _119
REMARK   49  A    between atoms: _118  and  _121
REMARK   50  A    between atoms: _121  and  _122
REMARK   51  A    between atoms: _122  and  _123
REMARK   52  A    between atoms: _123  and  _124
REMARK   53  A    between atoms: _124  and  _125
REMARK   54  A    between atoms: _129  and  _131
REMARK   55  A    between atoms: _131  and  _132
REMARK   56  A    between atoms: _131  and  _134
REMARK   57  A    between atoms: _134  and  _135
REMARK   58  A    between atoms: _135  and  _136
REMARK   59  A    between atoms: _138  and  _140
REMARK   60  A    between atoms: _140  and  _141
REMARK   61  A    between atoms: _140  and  _143
REMARK   62  A    between atoms: _143  and  _144
REMARK   63  A    between atoms: _147  and  _149
REMARK   64  A    between atoms: _149  and  _150
REMARK   65  A    between atoms: _152  and  _154
REMARK   66  A    between atoms: _154  and  _155
REMARK   67  A    between atoms: _157  and  _159
REMARK   68  A    between atoms: _159  and  _160
REMARK   69  A    between atoms: _159  and  _162
REMARK   70  A    between atoms: _162  and  _163
REMARK   71  A    between atoms: _166  and  _168
REMARK   72  A    between atoms: _168  and  _169
REMARK   73  A    between atoms: _171  and  _173
REMARK   74  A    between atoms: _173  and  _174
REMARK   75  A    between atoms: _176  and  _178
REMARK   76  A    between atoms: _178  and  _179
REMARK   77  A    between atoms: _178  and  _181
REMARK   78  A    between atoms: _181  and  _182
REMARK   79  A    between atoms: _188  and  _190
REMARK   80  A    between atoms: _190  and  _191
REMARK   81  A    between atoms: _190  and  _193
REMARK   82  A    between atoms: _193  and  _194
REMARK   83  A    between atoms: _197  and  _199
REMARK   84  A    between atoms: _199  and  _200
REMARK   85  A    between atoms: _199  and  _202
REMARK   86  A    between atoms: _205  and  _207
REMARK   87  A    between atoms: _207  and  _208
REMARK   88  A    between atoms: _207  and  _210
REMARK   89  A    between atoms: _210  and  _211
REMARK   90  A    between atoms: _215  and  _216
REMARK   91  A    between atoms: _221  and  _223
REMARK   92  A    between atoms: _223  and  _224
REMARK   93  A    between atoms: _223  and  _226
REMARK   94  A    between atoms: _226  and  _227
REMARK   95  A    between atoms: _231  and  _232
REMARK   96  A    between atoms: _237  and  _239
REMARK   97  A    between atoms: _239  and  _240
REMARK   98  A    between atoms: _239  and  _242
REMARK   99  A    between atoms: _245  and  _247
REMARK  100  A    between atoms: _247  and  _248
REMARK  101  A    between atoms: _247  and  _250
REMARK  102  A    between atoms: _250  and  _251
REMARK  103  A    between atoms: _256  and  _258
REMARK  104  A    between atoms: _258  and  _259
REMARK  105  A    between atoms: _258  and  _261
REMARK  106  A    between atoms: _261  and  _262
REMARK  107  A    between atoms: _265  and  _267
REMARK  108  A    between atoms: _267  and  _268
REMARK  109  A    between atoms: _267  and  _270
REMARK  110  A    between atoms: _270  and  _271
REMARK  111  A    between atoms: _274  and  _276
REMARK  112  A    between atoms: _276  and  _277
REMARK  113  A    between atoms: _279  and  _281
REMARK  114  A    between atoms: _281  and  _282
REMARK  115  A    between atoms: _281  and  _284
REMARK  116  A    between atoms: _284  and  _285
REMARK  117  A    between atoms: _285  and  _286
REMARK  118  A    between atoms: _286  and  _287
REMARK  119  A    between atoms: _296  and  _298
REMARK  120  A    between atoms: _298  and  _299
REMARK  121  A    between atoms: _298  and  _301
REMARK  122  A    between atoms: _301  and  _302
REMARK  123  A    between atoms: _302  and  _303
REMARK  124  A    between atoms: _303  and  _304
REMARK  125  A    between atoms: _314  and  _315
REMARK  126  A    between atoms: _320  and  _322
REMARK  127  A    between atoms: _322  and  _323
REMARK  128  A    between atoms: _322  and  _325
REMARK  129  A    between atoms: _325  and  _326
REMARK  130  A    between atoms: _329  and  _331
REMARK  131  A    between atoms: _331  and  _332
REMARK  132  A    between atoms: _331  and  _334
REMARK  133  A    between atoms: _334  and  _335
REMARK  134  A    between atoms: _335  and  _336
REMARK  135  A    between atoms: _339  and  _341
REMARK  136  A    between atoms: _341  and  _342
REMARK  137  A    between atoms: _341  and  _344
REMARK  138  A    between atoms: _344  and  _345
REMARK  139  A    between atoms: _348  and  _350
REMARK  140  A    between atoms: _350  and  _351
REMARK  141  A    between atoms: _350  and  _353
REMARK  142  A    between atoms: _353  and  _354
REMARK  143  A    between atoms: _357  and  _359
REMARK  144  A    between atoms: _359  and  _360
REMARK  145  A    between atoms: _359  and  _362
REMARK  146  A    between atoms: _362  and  _363
REMARK  147  A    between atoms: _366  and  _368
REMARK  148  A    between atoms: _368  and  _369
REMARK  149  A    between atoms: _368  and  _371
REMARK  150  A    between atoms: _371  and  _372
REMARK  151  A    between atoms: _375  and  _377
REMARK  152  A    between atoms: _377  and  _378
REMARK  153  A    between atoms: _380  and  _382
REMARK  154  A    between atoms: _382  and  _383
REMARK  155  A    between atoms: _386  and  _388
REMARK  156  A    between atoms: _388  and  _389
REMARK  157  A    between atoms: _388  and  _391
REMARK  158  A    between atoms: _391  and  _392
REMARK  159  A    between atoms: _395  and  _397
REMARK  160  A    between atoms: _397  and  _398
REMARK  161  A    between atoms: _397  and  _400
REMARK  162  A    between atoms: _400  and  _401
REMARK  163  A    between atoms: _404  and  _406
REMARK  164  A    between atoms: _406  and  _407
REMARK  165  A    between atoms: _406  and  _409
REMARK  166  A    between atoms: _409  and  _410
REMARK  167  A    between atoms: _413  and  _415
REMARK  168  A    between atoms: _415  and  _416
REMARK  169  A    between atoms: _415  and  _418
REMARK  170  A    between atoms: _421  and  _423
REMARK  171  A    between atoms: _423  and  _424
REMARK  172  A    between atoms: _423  and  _426
REMARK  173  A    between atoms: _426  and  _427
REMARK  174  A    between atoms: _427  and  _428
REMARK  175  A    between atoms: _428  and  _429
REMARK  176  A    between atoms: _429  and  _430
REMARK  177  A    between atoms: _434  and  _436
REMARK  178  A    between atoms: _436  and  _437
REMARK  179  A    between atoms: _436  and  _439
REMARK  180  A    between atoms: _439  and  _440
REMARK  181  A    between atoms: _440  and  _441
REMARK  182  A    between atoms: _443  and  _445
REMARK  183  A    between atoms: _445  and  _446
REMARK  184  A    between atoms: _445  and  _448
REMARK  185  A    between atoms: _448  and  _449
REMARK  186  A    between atoms: _452  and  _454
REMARK  187  A    between atoms: _454  and  _455
REMARK  188  A    between atoms: _457  and  _459
REMARK  189  A    between atoms: _459  and  _460
REMARK  190  A    between atoms: _462  and  _464
REMARK  191  A    between atoms: _464  and  _465
REMARK  192  A    between atoms: _464  and  _467
REMARK  193  A    between atoms: _467  and  _468
REMARK  194  A    between atoms: _471  and  _473
REMARK  195  A    between atoms: _473  and  _474
REMARK  196  A    between atoms: _476  and  _478
REMARK  197  A    between atoms: _478  and  _479
REMARK  198  A    between atoms: _481  and  _483
REMARK  199  A    between atoms: _483  and  _484
REMARK  200  A    between atoms: _483  and  _486
REMARK  201  A    between atoms: _486  and  _487
REMARK  202  A    between atoms: _493  and  _495
REMARK  203  A    between atoms: _495  and  _496
REMARK  204  A    between atoms: _495  and  _498
REMARK  205  A    between atoms: _498  and  _499
REMARK  206  A    between atoms: _502  and  _504
REMARK  207  A    between atoms: _504  and  _505
REMARK  208  A    between atoms: _504  and  _507
REMARK  209  A    between atoms: _510  and  _512
REMARK  210  A    between atoms: _512  and  _513
REMARK  211  A    between atoms: _512  and  _515
REMARK  212  A    between atoms: _515  and  _516
REMARK  213  A    between atoms: _519  and  _521
REMARK  214  A    between atoms: _521  and  _522
REMARK  215  A    between atoms: _521  and  _524
REMARK  216  A    between atoms: _524  and  _525
REMARK  217  A    between atoms: _529  and  _530
REMARK  218  A    between atoms: _535  and  _537
REMARK  219  A    between atoms: _537  and  _538
REMARK  220  A    between atoms: _537  and  _540
REMARK  221  A    between atoms: _543  and  _545
REMARK  222  A    between atoms: _545  and  _546
REMARK  223  A    between atoms: _545  and  _548
REMARK  224  A    between atoms: _548  and  _549
REMARK  225  A    between atoms: _554  and  _556
REMARK  226  A    between atoms: _556  and  _557
REMARK  227  A    between atoms: _556  and  _559
REMARK  228  A    between atoms: _559  and  _560
REMARK  229  A    between atoms: _563  and  _565
REMARK  230  A    between atoms: _565  and  _566
REMARK  231  A    between atoms: _565  and  _568
REMARK  232  A    between atoms: _568  and  _569
REMARK  233  A    between atoms: _572  and  _574
REMARK  234  A    between atoms: _574  and  _575
REMARK  235  A    between atoms: _577  and  _579
REMARK  236  A    between atoms: _579  and  _580
REMARK  237  A    between atoms: _579  and  _582
REMARK  238  A    between atoms: _582  and  _583
REMARK  239  A    between atoms: _583  and  _584
REMARK  240  A    between atoms: _584  and  _585
REMARK                            x       y       z     vdW  Elec       q    Type
REMARK                         _______ _______ _______ _____ _____    ______ ____
ROOT
ATOM      1  C   ASN A   5      -4.103  -2.991  18.530  0.00  0.00    +0.241 C 
ATOM      2  O   ASN A   5      -3.514  -3.072  19.587  0.00  0.00    -0.273 OA
ATOM      3  N   ILE A   6      -3.975  -1.981  17.687  0.00  0.00    -0.297 N 
ATOM      4  H   ILE A   6      -4.594  -1.932  16.853  0.00  0.00    +0.150 HD
ENDROOT
BRANCH   3   5
ATOM      5  CA  ILE A   6      -2.980  -0.931  17.904  0.00  0.00    +0.149 C 
BRANCH   5   6
ATOM      6  C   ILE A   6      -3.650   0.425  18.088  0.00  0.00    +0.241 C 
ATOM      7  N   ILE A   7      -3.321   1.129  19.153  0.00  0.00    -0.297 N 
ATOM      8  H   ILE A   7      -2.736   0.715  19.907  0.00  0.00    +0.150 HD
ATOM      9  O   ILE A   6      -4.434   0.834  17.258  0.00  0.00    -0.273 OA
BRANCH   7  10
ATOM     10  CA  ILE A   7      -3.798   2.498  19.245  0.00  0.00    +0.149 C 
BRANCH  10  11
ATOM     11  C   ILE A   7      -2.638   3.387  18.913  0.00  0.00    +0.241 C 
ATOM     12  O   ILE A   7      -1.663   3.434  19.646  0.00  0.00    -0.273 OA
ATOM     13  N   GLY A   8      -2.765   4.085  17.813  0.00  0.00    -0.295 N 
ATOM     14  H   GLY A   8      -3.616   4.002  17.220  0.00  0.00    +0.150 HD
BRANCH  13  15
ATOM     15  CA  GLY A   8      -1.673   4.986  17.443  0.00  0.00    +0.176 C 
BRANCH  15  16
ATOM     16  C   GLY A   8      -1.841   6.435  17.827  0.00  0.00    +0.243 C 
ATOM     17  O   GLY A   8      -2.780   6.844  18.495  0.00  0.00    -0.273 OA
ATOM     18  N   ARG A   9      -0.872   7.212  17.350  0.00  0.00    -0.298 N 
ATOM     19  H   ARG A   9      -0.152   6.806  16.718  0.00  0.00    +0.150 HD
BRANCH  18  20
ATOM     20  CA  ARG A   9      -0.806   8.642  17.706  0.00  0.00    +0.137 C 
BRANCH  20  21
ATOM     21  C   ARG A   9      -1.969   9.520  17.315  0.00  0.00    +0.227 C 
ATOM     22  O   ARG A   9      -2.244  10.517  17.969  0.00  0.00    -0.286 OA
ENDBRANCH  20  21
BRANCH  20  23
ATOM     23  CB  ARG A   9       0.463   9.327  17.160  0.00  0.00    +0.031 C 
BRANCH  23  24
ATOM     24  CG  ARG A   9       1.786   8.746  17.634  0.00  0.00    +0.045 C 
BRANCH  24  25
ATOM     25  CD  ARG A   9       2.939   9.643  17.213  0.00  0.00    +0.174 C 
BRANCH  25  26
ATOM     26  NE  ARG A   9       3.041   9.627  15.748  0.00  0.00    -0.265 N 
ATOM     27  HE  ARG A   9       3.476   8.804  15.284  0.00  0.00    +0.259 HD
ATOM     28  CZ  ARG A   9       2.595  10.633  14.990  0.00  0.00    +0.342 C 
ATOM     29  NH2 ARG A   9       2.137  11.779  15.519  0.00  0.00    -0.292 N 
ATOM     30 HH21 ARG A   9       2.121  11.906  16.551  0.00  0.00    +0.255 HD
ATOM     31 HH22 ARG A   9       1.798  12.540  14.897  0.00  0.00    +0.255 HD
ATOM     32  NH1 ARG A   9       2.584  10.464  13.677  0.00  0.00    -0.292 N 
ATOM     33 HH11 ARG A   9       2.916   9.569  13.265  0.00  0.00    +0.255 HD
ATOM     34 HH12 ARG A   9       2.243  11.227  13.057  0.00  0.00    +0.255 HD
ENDBRANCH  25  26
ENDBRANCH  24  25
ENDBRANCH  23  24
ENDBRANCH  20  23
ENDBRANCH  18  20
ENDBRANCH  15  16
ENDBRANCH  13  15
ENDBRANCH  10  11
BRANCH  10  35
ATOM     35  CB  ILE A   7      -4.293   2.821  20.682  0.00  0.00    +0.027 C 
ATOM     36  CG2 ILE A   7      -4.744   4.280  20.822  0.00  0.00    +0.002 C 
BRANCH  35  37
ATOM     37  CG1 ILE A   7      -5.408   1.910  21.202  0.00  0.00    +0.002 C 
ATOM     38  CD1 ILE A   7      -6.696   1.945  20.357  0.00  0.00    +0.000 C 
ENDBRANCH  35  37
ENDBRANCH  10  35
ENDBRANCH   7  10
ENDBRANCH   5   6
BRANCH   5  39
ATOM     39  CB  ILE A   6      -2.100  -0.816  16.641  0.00  0.00    +0.027 C 
ATOM     40  CG2 ILE A   6      -1.142   0.389  16.673  0.00  0.00    +0.002 C 
BRANCH  39  41
ATOM     41  CG1 ILE A   6      -1.283  -2.038  16.268  0.00  0.00    +0.002 C 
ATOM     42  CD1 ILE A   6      -0.292  -2.311  17.363  0.00  0.00    +0.000 C 
ENDBRANCH  39  41
ENDBRANCH   5  39
ENDBRANCH   3   5
BRANCH   1  43
ATOM     43  CA  ASN A   5      -5.027  -4.098  18.121  0.00  0.00    +0.158 C 
BRANCH  43  45
ATOM     44  C   VAL A   4      -3.444  -5.692  17.328  0.00  0.00    +0.241 C 
ATOM     45  N   ASN A   5      -4.389  -5.419  18.209  0.00  0.00    -0.297 N 
ATOM     46  H   ASN A   5      -4.670  -6.109  18.934  0.00  0.00    +0.150 HD
ATOM     47  O   VAL A   4      -3.180  -4.961  16.387  0.00  0.00    -0.273 OA
BRANCH  44  48
ATOM     48  CA  VAL A   4      -2.673  -6.984  17.514  0.00  0.00    +0.149 C 
BRANCH  48  51
ATOM     49  C   PRO A   3      -2.250  -8.855  15.989  0.00  0.00    +0.241 C 
ATOM     50  O   PRO A   3      -2.681  -9.642  16.824  0.00  0.00    -0.273 OA
ATOM     51  N   VAL A   4      -2.247  -7.545  16.216  0.00  0.00    -0.297 N 
ATOM     52  H   VAL A   4      -1.937  -6.900  15.461  0.00  0.00    +0.150 HD
BRANCH  49  56
ATOM     53  C   THR A   2      -3.138  -7.962  13.152  0.00  0.00    +0.246 C 
ATOM     54  O   THR A   2      -4.120  -8.481  13.647  0.00  0.00    -0.273 OA
ATOM     55  N   PRO A   3      -1.884  -8.348  13.487  0.00  0.00    -0.272 N 
ATOM     56  CA  PRO A   3      -1.673  -9.276  14.616  0.00  0.00    +0.152 C 
ATOM     57  CB  PRO A   3      -0.141  -9.378  14.669  0.00  0.00    +0.031 C 
ATOM     58  CG  PRO A   3       0.375  -8.975  13.301  0.00  0.00    +0.024 C 
ATOM     59  CD  PRO A   3      -0.638  -7.943  12.827  0.00  0.00    +0.094 C 
BRANCH  53  60
ATOM     60  CA  THR A   2      -3.303  -6.843  12.128  0.00  0.00    +0.176 C 
BRANCH  60  62
ATOM     61  C   PRO A   1      -4.284  -7.982  10.182  0.00  0.00    +0.239 C 
ATOM     62  N   THR A   2      -4.409  -7.077  11.172  0.00  0.00    -0.295 N 
ATOM     63  H   THR A   2      -5.293  -6.537  11.266  0.00  0.00    +0.150 HD
ATOM     64  O   PRO A   1      -3.208  -8.501   9.927  0.00  0.00    -0.274 OA
BRANCH  61  66
ATOM     65  N   PRO A   1      -6.314  -7.097   8.855  0.00  0.00    -0.210 NA
ATOM     66  CA  PRO A   1      -5.611  -8.281   9.432  0.00  0.00    +0.149 C 
ATOM     67  CB  PRO A   1      -5.458  -9.161   8.172  0.00  0.00    +0.028 C 
ATOM     68  CG  PRO A   1      -5.236  -8.147   7.052  0.00  0.00    +0.021 C 
ATOM     69  CD  PRO A   1      -6.199  -7.007   7.409  0.00  0.00    +0.089 C 
ENDBRANCH  61  66
ENDBRANCH  60  62
BRANCH  60  70
ATOM     70  CB  THR A   2      -3.533  -5.486  12.857  0.00  0.00    +0.137 C 
ATOM     71  CG2 THR A   2      -4.857  -5.378  13.613  0.00  0.00    +0.034 C 
BRANCH  70  72
ATOM     72  OG1 THR A   2      -2.429  -5.222  13.734  0.00  0.00    -0.382 OA
ATOM     73  HG1 THR A   2      -2.576  -4.359  14.197  0.00  0.00    +0.210 HD
ENDBRANCH  70  72
ENDBRANCH  60  70
ENDBRANCH  53  60
ENDBRANCH  49  56
ENDBRANCH  48  51
BRANCH  48  74
ATOM     74  CB  VAL A   4      -1.385  -6.721  18.358  0.00  0.00    +0.027 C 
ATOM     75  CG2 VAL A   4      -1.661  -6.176  19.761  0.00  0.00    +0.002 C 
ATOM     76  CG1 VAL A   4      -0.429  -5.769  17.664  0.00  0.00    +0.002 C 
ENDBRANCH  48  74
ENDBRANCH  44  48
ENDBRANCH  43  45
BRANCH  43  77
ATOM     77  CB  ASN A   5      -6.202  -4.003  19.075  0.00  0.00    +0.114 C 
BRANCH  77  78
ATOM     78  CG  ASN A   5      -7.261  -4.965  18.682  0.00  0.00    +0.222 C 
ATOM     79  ND2 ASN A   5      -7.889  -5.591  19.621  0.00  0.00    -0.329 N 
ATOM     80 HD21 ASN A   5      -7.622  -5.441  20.615  0.00  0.00    +0.145 HD
ATOM     81 HD22 ASN A   5      -8.662  -6.245  19.383  0.00  0.00    +0.145 HD
ATOM     82  OD1 ASN A   5      -7.564  -5.133  17.537  0.00  0.00    -0.275 OA
ENDBRANCH  77  78
ENDBRANCH  43  77
ENDBRANCH   1  43
TORSDOF 29
REMARK  Name = ../refined-set-2016/1hvk/1hvk_pocket.pdb
REMARK  240 active torsions:
REMARK  status: ('A' for Active; 'I' for Inactive)
REMARK    1  A    between atoms: _1  and  _3
REMARK    2  A    between atoms: _3  and  _4
REMARK    3  A    between atoms: _3  and  _6
REMARK    4  A    between atoms: _6  and  _7
REMARK    5  A    between atoms: _7  and  _8
REMARK    6  A    between atoms: _8  and  _9
REMARK    7  A    between atoms: _19  and  _20
REMARK    8  A    between atoms: _25  and  _27
REMARK    9  A    between atoms: _27  and  _28
REMARK   10  A    between atoms: _27  and  _30
REMARK   11  A    between atoms: _30  and  _31
REMARK   12  A    between atoms: _34  and  _36
REMARK   13  A    between atoms: _36  and  _37
REMARK   14  A    between atoms: _36  and  _39
REMARK   15  A    between atoms: _39  and  _40
REMARK   16  A    between atoms: _43  and  _45
REMARK   17  A    between atoms: _45  and  _46
REMARK   18  A    between atoms: _45  and  _48
REMARK   19  A    between atoms: _48  and  _49
REMARK   20  A    between atoms: _52  and  _54
REMARK   21  A    between atoms: _54  and  _55
REMARK   22  A    between atoms: _54  and  _57
REMARK   23  A    between atoms: _57  and  _58
REMARK   24  A    between atoms: _61  and  _63
REMARK   25  A    between atoms: _63  and  _64
REMARK   26  A    between atoms: _63  and  _66
REMARK   27  A    between atoms: _66  and  _67
REMARK   28  A    between atoms: _70  and  _72
REMARK   29  A    between atoms: _72  and  _73
REMARK   30  A    between atoms: _75  and  _77
REMARK   31  A    between atoms: _77  and  _78
REMARK   32  A    between atoms: _81  and  _83
REMARK   33  A    between atoms: _83  and  _84
REMARK   34  A    between atoms: _83  and  _86
REMARK   35  A    between atoms: _86  and  _87
REMARK   36  A    between atoms: _90  and  _92
REMARK   37  A    between atoms: _92  and  _93
REMARK   38  A    between atoms: _92  and  _95
REMARK   39  A    between atoms: _95  and  _96
REMARK   40  A    between atoms: _99  and  _101
REMARK   41  A    between atoms: _101  and  _102
REMARK   42  A    between atoms: _101  and  _104
REMARK   43  A    between atoms: _104  and  _105
REMARK   44  A    between atoms: _108  and  _110
REMARK   45  A    between atoms: _110  and  _111
REMARK   46  A    between atoms: _110  and  _113
REMARK   47  A    between atoms: _116  and  _118
REMARK   48  A    between atoms: _118  and  _119
REMARK   49  A    between atoms: _118  and  _121
REMARK   50  A    between atoms: _121  and  _122
REMARK   51  A    between atoms: _122  and  _123
REMARK   52  A    between atoms: _123  and  _124
REMARK   53  A    between atoms: _124  and  _125
REMARK   54  A    between atoms: _129  and  _131
REMARK   55  A    between atoms: _131  and  _132
REMARK   56  A    between atoms: _131  and  _134
REMARK   57  A    between atoms: _134  and  _135
REMARK   58  A    between atoms: _135  and  _136
REMARK   59  A    between atoms: _138  and  _140
REMARK   60  A    between atoms: _140  and  _141
REMARK   61  A    between atoms: _140  and  _143
REMARK   62  A    between atoms: _143  and  _144
REMARK   63  A    between atoms: _147  and  _149
REMARK   64  A    between atoms: _149  and  _150
REMARK   65  A    between atoms: _152  and  _154
REMARK   66  A    between atoms: _154  and  _155
REMARK   67  A    between atoms: _157  and  _159
REMARK   68  A    between atoms: _159  and  _160
REMARK   69  A    between atoms: _159  and  _162
REMARK   70  A    between atoms: _162  and  _163
REMARK   71  A    between atoms: _166  and  _168
REMARK   72  A    between atoms: _168  and  _169
REMARK   73  A    between atoms: _171  and  _173
REMARK   74  A    between atoms: _173  and  _174
REMARK   75  A    between atoms: _176  and  _178
REMARK   76  A    between atoms: _178  and  _179
REMARK   77  A    between atoms: _178  and  _181
REMARK   78  A    between atoms: _181  and  _182
REMARK   79  A    between atoms: _188  and  _190
REMARK   80  A    between atoms: _190  and  _191
REMARK   81  A    between atoms: _190  and  _193
REMARK   82  A    between atoms: _193  and  _194
REMARK   83  A    between atoms: _197  and  _199
REMARK   84  A    between atoms: _199  and  _200
REMARK   85  A    between atoms: _199  and  _202
REMARK   86  A    between atoms: _205  and  _207
REMARK   87  A    between atoms: _207  and  _208
REMARK   88  A    between atoms: _207  and  _210
REMARK   89  A    between atoms: _210  and  _211
REMARK   90  A    between atoms: _215  and  _216
REMARK   91  A    between atoms: _221  and  _223
REMARK   92  A    between atoms: _223  and  _224
REMARK   93  A    between atoms: _223  and  _226
REMARK   94  A    between atoms: _226  and  _227
REMARK   95  A    between atoms: _231  and  _232
REMARK   96  A    between atoms: _237  and  _239
REMARK   97  A    between atoms: _239  and  _240
REMARK   98  A    between atoms: _239  and  _242
REMARK   99  A    between atoms: _245  and  _247
REMARK  100  A    between atoms: _247  and  _248
REMARK  101  A    between atoms: _247  and  _250
REMARK  102  A    between atoms: _250  and  _251
REMARK  103  A    between atoms: _256  and  _258
REMARK  104  A    between atoms: _258  and  _259
REMARK  105  A    between atoms: _258  and  _261
REMARK  106  A    between atoms: _261  and  _262
REMARK  107  A    between atoms: _265  and  _267
REMARK  108  A    between atoms: _267  and  _268
REMARK  109  A    between atoms: _267  and  _270
REMARK  110  A    between atoms: _270  and  _271
REMARK  111  A    between atoms: _274  and  _276
REMARK  112  A    between atoms: _276  and  _277
REMARK  113  A    between atoms: _279  and  _281
REMARK  114  A    between atoms: _281  and  _282
REMARK  115  A    between atoms: _281  and  _284
REMARK  116  A    between atoms: _284  and  _285
REMARK  117  A    between atoms: _285  and  _286
REMARK  118  A    between atoms: _286  and  _287
REMARK  119  A    between atoms: _296  and  _298
REMARK  120  A    between atoms: _298  and  _299
REMARK  121  A    between atoms: _298  and  _301
REMARK  122  A    between atoms: _301  and  _302
REMARK  123  A    between atoms: _302  and  _303
REMARK  124  A    between atoms: _303  and  _304
REMARK  125  A    between atoms: _314  and  _315
REMARK  126  A    between atoms: _320  and  _322
REMARK  127  A    between atoms: _322  and  _323
REMARK  128  A    between atoms: _322  and  _325
REMARK  129  A    between atoms: _325  and  _326
REMARK  130  A    between atoms: _329  and  _331
REMARK  131  A    between atoms: _331  and  _332
REMARK  132  A    between atoms: _331  and  _334
REMARK  133  A    between atoms: _334  and  _335
REMARK  134  A    between atoms: _335  and  _336
REMARK  135  A    between atoms: _339  and  _341
REMARK  136  A    between atoms: _341  and  _342
REMARK  137  A    between atoms: _341  and  _344
REMARK  138  A    between atoms: _344  and  _345
REMARK  139  A    between atoms: _348  and  _350
REMARK  140  A    between atoms: _350  and  _351
REMARK  141  A    between atoms: _350  and  _353
REMARK  142  A    between atoms: _353  and  _354
REMARK  143  A    between atoms: _357  and  _359
REMARK  144  A    between atoms: _359  and  _360
REMARK  145  A    between atoms: _359  and  _362
REMARK  146  A    between atoms: _362  and  _363
REMARK  147  A    between atoms: _366  and  _368
REMARK  148  A    between atoms: _368  and  _369
REMARK  149  A    between atoms: _368  and  _371
REMARK  150  A    between atoms: _371  and  _372
REMARK  151  A    between atoms: _375  and  _377
REMARK  152  A    between atoms: _377  and  _378
REMARK  153  A    between atoms: _380  and  _382
REMARK  154  A    between atoms: _382  and  _383
REMARK  155  A    between atoms: _386  and  _388
REMARK  156  A    between atoms: _388  and  _389
REMARK  157  A    between atoms: _388  and  _391
REMARK  158  A    between atoms: _391  and  _392
REMARK  159  A    between atoms: _395  and  _397
REMARK  160  A    between atoms: _397  and  _398
REMARK  161  A    between atoms: _397  and  _400
REMARK  162  A    between atoms: _400  and  _401
REMARK  163  A    between atoms: _404  and  _406
REMARK  164  A    between atoms: _406  and  _407
REMARK  165  A    between atoms: _406  and  _409
REMARK  166  A    between atoms: _409  and  _410
REMARK  167  A    between atoms: _413  and  _415
REMARK  168  A    between atoms: _415  and  _416
REMARK  169  A    between atoms: _415  and  _418
REMARK  170  A    between atoms: _421  and  _423
REMARK  171  A    between atoms: _423  and  _424
REMARK  172  A    between atoms: _423  and  _426
REMARK  173  A    between atoms: _426  and  _427
REMARK  174  A    between atoms: _427  and  _428
REMARK  175  A    between atoms: _428  and  _429
REMARK  176  A    between atoms: _429  and  _430
REMARK  177  A    between atoms: _434  and  _436
REMARK  178  A    between atoms: _436  and  _437
REMARK  179  A    between atoms: _436  and  _439
REMARK  180  A    between atoms: _439  and  _440
REMARK  181  A    between atoms: _440  and  _441
REMARK  182  A    between atoms: _443  and  _445
REMARK  183  A    between atoms: _445  and  _446
REMARK  184  A    between atoms: _445  and  _448
REMARK  185  A    between atoms: _448  and  _449
REMARK  186  A    between atoms: _452  and  _454
REMARK  187  A    between atoms: _454  and  _455
REMARK  188  A    between atoms: _457  and  _459
REMARK  189  A    between atoms: _459  and  _460
REMARK  190  A    between atoms: _462  and  _464
REMARK  191  A    between atoms: _464  and  _465
REMARK  192  A    between atoms: _464  and  _467
REMARK  193  A    between atoms: _467  and  _468
REMARK  194  A    between atoms: _471  and  _473
REMARK  195  A    between atoms: _473  and  _474
REMARK  196  A    between atoms: _476  and  _478
REMARK  197  A    between atoms: _478  and  _479
REMARK  198  A    between atoms: _481  and  _483
REMARK  199  A    between atoms: _483  and  _484
REMARK  200  A    between atoms: _483  and  _486
REMARK  201  A    between atoms: _486  and  _487
REMARK  202  A    between atoms: _493  and  _495
REMARK  203  A    between atoms: _495  and  _496
REMARK  204  A    between atoms: _495  and  _498
REMARK  205  A    between atoms: _498  and  _499
REMARK  206  A    between atoms: _502  and  _504
REMARK  207  A    between atoms: _504  and  _505
REMARK  208  A    between atoms: _504  and  _507
REMARK  209  A    between atoms: _510  and  _512
REMARK  210  A    between atoms: _512  and  _513
REMARK  211  A    between atoms: _512  and  _515
REMARK  212  A    between atoms: _515  and  _516
REMARK  213  A    between atoms: _519  and  _521
REMARK  214  A    between atoms: _521  and  _522
REMARK  215  A    between atoms: _521  and  _524
REMARK  216  A    between atoms: _524  and  _525
REMARK  217  A    between atoms: _529  and  _530
REMARK  218  A    between atoms: _535  and  _537
REMARK  219  A    between atoms: _537  and  _538
REMARK  220  A    between atoms: _537  and  _540
REMARK  221  A    between atoms: _543  and  _545
REMARK  222  A    between atoms: _545  and  _546
REMARK  223  A    between atoms: _545  and  _548
REMARK  224  A    between atoms: _548  and  _549
REMARK  225  A    between atoms: _554  and  _556
REMARK  226  A    between atoms: _556  and  _557
REMARK  227  A    between atoms: _556  and  _559
REMARK  228  A    between atoms: _559  and  _560
REMARK  229  A    between atoms: _563  and  _565
REMARK  230  A    between atoms: _565  and  _566
REMARK  231  A    between atoms: _565  and  _568
REMARK  232  A    between atoms: _568  and  _569
REMARK  233  A    between atoms: _572  and  _574
REMARK  234  A    between atoms: _574  and  _575
REMARK  235  A    between atoms: _577  and  _579
REMARK  236  A    between atoms: _579  and  _580
REMARK  237  A    between atoms: _579  and  _582
REMARK  238  A    between atoms: _582  and  _583
REMARK  239  A    between atoms: _583  and  _584
REMARK  240  A    between atoms: _584  and  _585
REMARK                            x       y       z     vdW  Elec       q    Type
REMARK                         _______ _______ _______ _____ _____    ______ ____
ROOT
ATOM      1  C   ARG A   1       7.690  11.363  16.558  0.00  0.00    +0.241 C 
ATOM      2  N   PRO A   2       7.695  10.573  17.625  0.00  0.00    -0.272 N 
ATOM      3  CA  PRO A   2       8.691  10.751  18.691  0.00  0.00    +0.152 C 
ATOM      4  CB  PRO A   2       8.077   9.949  19.822  0.00  0.00    +0.031 C 
ATOM      5  CG  PRO A   2       7.270   8.845  19.146  0.00  0.00    +0.024 C 
ATOM      6  CD  PRO A   2       6.698   9.560  17.948  0.00  0.00    +0.094 C 
ATOM      7  O   ARG A   1       8.495  12.258  16.394  0.00  0.00    -0.273 OA
ENDROOT
BRANCH   3   8
ATOM      8  C   PRO A   2      10.037  10.241  18.326  0.00  0.00    +0.241 C 
ATOM      9  O   PRO A   2      10.525   9.235  18.800  0.00  0.00    -0.273 OA
ATOM     10  N   LEU A   3      10.631  10.992  17.421  0.00  0.00    -0.298 N 
ATOM     11  H   LEU A   3      10.108  11.785  16.999  0.00  0.00    +0.150 HD
BRANCH  10  12
ATOM     12  CA  LEU A   3      12.022  10.737  16.990  0.00  0.00    +0.137 C 
BRANCH  12  13
ATOM     13  C   LEU A   3      13.021  11.494  17.838  0.00  0.00    +0.227 C 
ATOM     14  O   LEU A   3      12.903  12.690  18.067  0.00  0.00    -0.286 OA
ENDBRANCH  12  13
BRANCH  12  15
ATOM     15  CB  LEU A   3      12.266  11.188  15.539  0.00  0.00    +0.028 C 
BRANCH  15  16
ATOM     16  CG  LEU A   3      11.381  10.464  14.537  0.00  0.00    +0.002 C 
ATOM     17  CD2 LEU A   3      11.835   9.035  14.284  0.00  0.00    +0.000 C 
ATOM     18  CD1 LEU A   3      11.319  11.320  13.268  0.00  0.00    +0.000 C 
ENDBRANCH  15  16
ENDBRANCH  12  15
ENDBRANCH  10  12
ENDBRANCH   3   8
BRANCH   1  19
ATOM     19  CA  ARG A   1       6.606  11.134  15.506  0.00  0.00    +0.145 C 
BRANCH  19  20
ATOM     20  N   ARG A   1       5.957  12.381  15.069  0.00  0.00    -0.238 NA
ATOM     21  H   ARG A   1       6.025  12.723  14.089  0.00  0.00    +0.142 HD
ENDBRANCH  19  20
BRANCH  19  22
ATOM     22  CB  ARG A   1       7.258  10.448  14.301  0.00  0.00    +0.030 C 
BRANCH  22  23
ATOM     23  CG  ARG A   1       6.262  10.044  13.227  0.00  0.00    +0.045 C 
BRANCH  23  24
ATOM     24  CD  ARG A   1       6.908   9.655  11.904  0.00  0.00    +0.174 C 
BRANCH  24  25
ATOM     25  NE  ARG A   1       5.849   9.238  10.990  0.00  0.00    -0.265 N 
ATOM     26  HE  ARG A   1       4.974   8.844  11.391  0.00  0.00    +0.259 HD
ATOM     27  CZ  ARG A   1       5.952   9.339   9.674  0.00  0.00    +0.342 C 
ATOM     28  NH2 ARG A   1       7.093   9.775   9.127  0.00  0.00    -0.292 N 
ATOM     29 HH21 ARG A   1       7.896  10.033   9.735  0.00  0.00    +0.255 HD
ATOM     30 HH22 ARG A   1       7.177   9.855   8.093  0.00  0.00    +0.255 HD
ATOM     31  NH1 ARG A   1       4.896   8.984   8.937  0.00  0.00    -0.292 N 
ATOM     32 HH11 ARG A   1       4.030   8.642   9.400  0.00  0.00    +0.255 HD
ATOM     33 HH12 ARG A   1       4.940   9.050   7.900  0.00  0.00    +0.255 HD
ENDBRANCH  24  25
ENDBRANCH  23  24
ENDBRANCH  22  23
ENDBRANCH  19  22
ENDBRANCH   1  19
TORSDOF 11
REMARK  Name = ../refined-set-2016/1hvk/1hvk_pocket.pdb
REMARK  240 active torsions:
REMARK  status: ('A' for Active; 'I' for Inactive)
REMARK    1  A    between atoms: _1  and  _3
REMARK    2  A    between atoms: _3  and  _4
REMARK    3  A    between atoms: _3  and  _6
REMARK    4  A    between atoms: _6  and  _7
REMARK    5  A    between atoms: _7  and  _8
REMARK    6  A    between atoms: _8  and  _9
REMARK    7  A    between atoms: _19  and  _20
REMARK    8  A    between atoms: _25  and  _27
REMARK    9  A    between atoms: _27  and  _28
REMARK   10  A    between atoms: _27  and  _30
REMARK   11  A    between atoms: _30  and  _31
REMARK   12  A    between atoms: _34  and  _36
REMARK   13  A    between atoms: _36  and  _37
REMARK   14  A    between atoms: _36  and  _39
REMARK   15  A    between atoms: _39  and  _40
REMARK   16  A    between atoms: _43  and  _45
REMARK   17  A    between atoms: _45  and  _46
REMARK   18  A    between atoms: _45  and  _48
REMARK   19  A    between atoms: _48  and  _49
REMARK   20  A    between atoms: _52  and  _54
REMARK   21  A    between atoms: _54  and  _55
REMARK   22  A    between atoms: _54  and  _57
REMARK   23  A    between atoms: _57  and  _58
REMARK   24  A    between atoms: _61  and  _63
REMARK   25  A    between atoms: _63  and  _64
REMARK   26  A    between atoms: _63  and  _66
REMARK   27  A    between atoms: _66  and  _67
REMARK   28  A    between atoms: _70  and  _72
REMARK   29  A    between atoms: _72  and  _73
REMARK   30  A    between atoms: _75  and  _77
REMARK   31  A    between atoms: _77  and  _78
REMARK   32  A    between atoms: _81  and  _83
REMARK   33  A    between atoms: _83  and  _84
REMARK   34  A    between atoms: _83  and  _86
REMARK   35  A    between atoms: _86  and  _87
REMARK   36  A    between atoms: _90  and  _92
REMARK   37  A    between atoms: _92  and  _93
REMARK   38  A    between atoms: _92  and  _95
REMARK   39  A    between atoms: _95  and  _96
REMARK   40  A    between atoms: _99  and  _101
REMARK   41  A    between atoms: _101  and  _102
REMARK   42  A    between atoms: _101  and  _104
REMARK   43  A    between atoms: _104  and  _105
REMARK   44  A    between atoms: _108  and  _110
REMARK   45  A    between atoms: _110  and  _111
REMARK   46  A    between atoms: _110  and  _113
REMARK   47  A    between atoms: _116  and  _118
REMARK   48  A    between atoms: _118  and  _119
REMARK   49  A    between atoms: _118  and  _121
REMARK   50  A    between atoms: _121  and  _122
REMARK   51  A    between atoms: _122  and  _123
REMARK   52  A    between atoms: _123  and  _124
REMARK   53  A    between atoms: _124  and  _125
REMARK   54  A    between atoms: _129  and  _131
REMARK   55  A    between atoms: _131  and  _132
REMARK   56  A    between atoms: _131  and  _134
REMARK   57  A    between atoms: _134  and  _135
REMARK   58  A    between atoms: _135  and  _136
REMARK   59  A    between atoms: _138  and  _140
REMARK   60  A    between atoms: _140  and  _141
REMARK   61  A    between atoms: _140  and  _143
REMARK   62  A    between atoms: _143  and  _144
REMARK   63  A    between atoms: _147  and  _149
REMARK   64  A    between atoms: _149  and  _150
REMARK   65  A    between atoms: _152  and  _154
REMARK   66  A    between atoms: _154  and  _155
REMARK   67  A    between atoms: _157  and  _159
REMARK   68  A    between atoms: _159  and  _160
REMARK   69  A    between atoms: _159  and  _162
REMARK   70  A    between atoms: _162  and  _163
REMARK   71  A    between atoms: _166  and  _168
REMARK   72  A    between atoms: _168  and  _169
REMARK   73  A    between atoms: _171  and  _173
REMARK   74  A    between atoms: _173  and  _174
REMARK   75  A    between atoms: _176  and  _178
REMARK   76  A    between atoms: _178  and  _179
REMARK   77  A    between atoms: _178  and  _181
REMARK   78  A    between atoms: _181  and  _182
REMARK   79  A    between atoms: _188  and  _190
REMARK   80  A    between atoms: _190  and  _191
REMARK   81  A    between atoms: _190  and  _193
REMARK   82  A    between atoms: _193  and  _194
REMARK   83  A    between atoms: _197  and  _199
REMARK   84  A    between atoms: _199  and  _200
REMARK   85  A    between atoms: _199  and  _202
REMARK   86  A    between atoms: _205  and  _207
REMARK   87  A    between atoms: _207  and  _208
REMARK   88  A    between atoms: _207  and  _210
REMARK   89  A    between atoms: _210  and  _211
REMARK   90  A    between atoms: _215  and  _216
REMARK   91  A    between atoms: _221  and  _223
REMARK   92  A    between atoms: _223  and  _224
REMARK   93  A    between atoms: _223  and  _226
REMARK   94  A    between atoms: _226  and  _227
REMARK   95  A    between atoms: _231  and  _232
REMARK   96  A    between atoms: _237  and  _239
REMARK   97  A    between atoms: _239  and  _240
REMARK   98  A    between atoms: _239  and  _242
REMARK   99  A    between atoms: _245  and  _247
REMARK  100  A    between atoms: _247  and  _248
REMARK  101  A    between atoms: _247  and  _250
REMARK  102  A    between atoms: _250  and  _251
REMARK  103  A    between atoms: _256  and  _258
REMARK  104  A    between atoms: _258  and  _259
REMARK  105  A    between atoms: _258  and  _261
REMARK  106  A    between atoms: _261  and  _262
REMARK  107  A    between atoms: _265  and  _267
REMARK  108  A    between atoms: _267  and  _268
REMARK  109  A    between atoms: _267  and  _270
REMARK  110  A    between atoms: _270  and  _271
REMARK  111  A    between atoms: _274  and  _276
REMARK  112  A    between atoms: _276  and  _277
REMARK  113  A    between atoms: _279  and  _281
REMARK  114  A    between atoms: _281  and  _282
REMARK  115  A    between atoms: _281  and  _284
REMARK  116  A    between atoms: _284  and  _285
REMARK  117  A    between atoms: _285  and  _286
REMARK  118  A    between atoms: _286  and  _287
REMARK  119  A    between atoms: _296  and  _298
REMARK  120  A    between atoms: _298  and  _299
REMARK  121  A    between atoms: _298  and  _301
REMARK  122  A    between atoms: _301  and  _302
REMARK  123  A    between atoms: _302  and  _303
REMARK  124  A    between atoms: _303  and  _304
REMARK  125  A    between atoms: _314  and  _315
REMARK  126  A    between atoms: _320  and  _322
REMARK  127  A    between atoms: _322  and  _323
REMARK  128  A    between atoms: _322  and  _325
REMARK  129  A    between atoms: _325  and  _326
REMARK  130  A    between atoms: _329  and  _331
REMARK  131  A    between atoms: _331  and  _332
REMARK  132  A    between atoms: _331  and  _334
REMARK  133  A    between atoms: _334  and  _335
REMARK  134  A    between atoms: _335  and  _336
REMARK  135  A    between atoms: _339  and  _341
REMARK  136  A    between atoms: _341  and  _342
REMARK  137  A    between atoms: _341  and  _344
REMARK  138  A    between atoms: _344  and  _345
REMARK  139  A    between atoms: _348  and  _350
REMARK  140  A    between atoms: _350  and  _351
REMARK  141  A    between atoms: _350  and  _353
REMARK  142  A    between atoms: _353  and  _354
REMARK  143  A    between atoms: _357  and  _359
REMARK  144  A    between atoms: _359  and  _360
REMARK  145  A    between atoms: _359  and  _362
REMARK  146  A    between atoms: _362  and  _363
REMARK  147  A    between atoms: _366  and  _368
REMARK  148  A    between atoms: _368  and  _369
REMARK  149  A    between atoms: _368  and  _371
REMARK  150  A    between atoms: _371  and  _372
REMARK  151  A    between atoms: _375  and  _377
REMARK  152  A    between atoms: _377  and  _378
REMARK  153  A    between atoms: _380  and  _382
REMARK  154  A    between atoms: _382  and  _383
REMARK  155  A    between atoms: _386  and  _388
REMARK  156  A    between atoms: _388  and  _389
REMARK  157  A    between atoms: _388  and  _391
REMARK  158  A    between atoms: _391  and  _392
REMARK  159  A    between atoms: _395  and  _397
REMARK  160  A    between atoms: _397  and  _398
REMARK  161  A    between atoms: _397  and  _400
REMARK  162  A    between atoms: _400  and  _401
REMARK  163  A    between atoms: _404  and  _406
REMARK  164  A    between atoms: _406  and  _407
REMARK  165  A    between atoms: _406  and  _409
REMARK  166  A    between atoms: _409  and  _410
REMARK  167  A    between atoms: _413  and  _415
REMARK  168  A    between atoms: _415  and  _416
REMARK  169  A    between atoms: _415  and  _418
REMARK  170  A    between atoms: _421  and  _423
REMARK  171  A    between atoms: _423  and  _424
REMARK  172  A    between atoms: _423  and  _426
REMARK  173  A    between atoms: _426  and  _427
REMARK  174  A    between atoms: _427  and  _428
REMARK  175  A    between atoms: _428  and  _429
REMARK  176  A    between atoms: _429  and  _430
REMARK  177  A    between atoms: _434  and  _436
REMARK  178  A    between atoms: _436  and  _437
REMARK  179  A    between atoms: _436  and  _439
REMARK  180  A    between atoms: _439  and  _440
REMARK  181  A    between atoms: _440  and  _441
REMARK  182  A    between atoms: _443  and  _445
REMARK  183  A    between atoms: _445  and  _446
REMARK  184  A    between atoms: _445  and  _448
REMARK  185  A    between atoms: _448  and  _449
REMARK  186  A    between atoms: _452  and  _454
REMARK  187  A    between atoms: _454  and  _455
REMARK  188  A    between atoms: _457  and  _459
REMARK  189  A    between atoms: _459  and  _460
REMARK  190  A    between atoms: _462  and  _464
REMARK  191  A    between atoms: _464  and  _465
REMARK  192  A    between atoms: _464  and  _467
REMARK  193  A    between atoms: _467  and  _468
REMARK  194  A    between atoms: _471  and  _473
REMARK  195  A    between atoms: _473  and  _474
REMARK  196  A    between atoms: _476  and  _478
REMARK  197  A    between atoms: _478  and  _479
REMARK  198  A    between atoms: _481  and  _483
REMARK  199  A    between atoms: _483  and  _484
REMARK  200  A    between atoms: _483  and  _486
REMARK  201  A    between atoms: _486  and  _487
REMARK  202  A    between atoms: _493  and  _495
REMARK  203  A    between atoms: _495  and  _496
REMARK  204  A    between atoms: _495  and  _498
REMARK  205  A    between atoms: _498  and  _499
REMARK  206  A    between atoms: _502  and  _504
REMARK  207  A    between atoms: _504  and  _505
REMARK  208  A    between atoms: _504  and  _507
REMARK  209  A    between atoms: _510  and  _512
REMARK  210  A    between atoms: _512  and  _513
REMARK  211  A    between atoms: _512  and  _515
REMARK  212  A    between atoms: _515  and  _516
REMARK  213  A    between atoms: _519  and  _521
REMARK  214  A    between atoms: _521  and  _522
REMARK  215  A    between atoms: _521  and  _524
REMARK  216  A    between atoms: _524  and  _525
REMARK  217  A    between atoms: _529  and  _530
REMARK  218  A    between atoms: _535  and  _537
REMARK  219  A    between atoms: _537  and  _538
REMARK  220  A    between atoms: _537  and  _540
REMARK  221  A    between atoms: _543  and  _545
REMARK  222  A    between atoms: _545  and  _546
REMARK  223  A    between atoms: _545  and  _548
REMARK  224  A    between atoms: _548  and  _549
REMARK  225  A    between atoms: _554  and  _556
REMARK  226  A    between atoms: _556  and  _557
REMARK  227  A    between atoms: _556  and  _559
REMARK  228  A    between atoms: _559  and  _560
REMARK  229  A    between atoms: _563  and  _565
REMARK  230  A    between atoms: _565  and  _566
REMARK  231  A    between atoms: _565  and  _568
REMARK  232  A    between atoms: _568  and  _569
REMARK  233  A    between atoms: _572  and  _574
REMARK  234  A    between atoms: _574  and  _575
REMARK  235  A    between atoms: _577  and  _579
REMARK  236  A    between atoms: _579  and  _580
REMARK  237  A    between atoms: _579  and  _582
REMARK  238  A    between atoms: _582  and  _583
REMARK  239  A    between atoms: _583  and  _584
REMARK  240  A    between atoms: _584  and  _585
REMARK                            x       y       z     vdW  Elec       q    Type
REMARK                         _______ _______ _______ _____ _____    ______ ____
ROOT
ATOM      1  CA  GLU A   1      17.800   9.216  15.011  0.00  0.00    +0.134 C 
ENDROOT
BRANCH   1   2
ATOM      2  N   GLU A   1      19.116   9.073  14.432  0.00  0.00    -0.239 NA
ATOM      3  H   GLU A   1      19.296   8.955  13.415  0.00  0.00    +0.142 HD
ENDBRANCH   1   2
BRANCH   1   4
ATOM      4  C   GLU A   1      16.984   7.962  15.035  0.00  0.00    +0.224 C 
ATOM      5  O   GLU A   1      17.155   7.053  14.239  0.00  0.00    -0.287 OA
ENDBRANCH   1   4
BRANCH   1   6
ATOM      6  CB  GLU A   1      16.989  10.337  14.408  0.00  0.00    +0.037 C 
BRANCH   6   7
ATOM      7  CG  GLU A   1      16.333  10.036  13.069  0.00  0.00    +0.116 C 
BRANCH   7   8
ATOM      8  CD  GLU A   1      15.386  11.183  12.726  0.00  0.00    +0.365 C 
ATOM      9  OE2 GLU A   1      15.354  12.203  13.448  0.00  0.00    -0.246 OA
ATOM     10  OE1 GLU A   1      14.679  11.054  11.721  0.00  0.00    -0.246 OA
ENDBRANCH   7   8
ENDBRANCH   6   7
ENDBRANCH   1   6
TORSDOF 5
REMARK  Name = ../refined-set-2016/1hvk/1hvk_pocket.pdb
REMARK  240 active torsions:
REMARK  status: ('A' for Active; 'I' for Inactive)
REMARK    1  A    between atoms: _1  and  _3
REMARK    2  A    between atoms: _3  and  _4
REMARK    3  A    between atoms: _3  and  _6
REMARK    4  A    between atoms: _6  and  _7
REMARK    5  A    between atoms: _7  and  _8
REMARK    6  A    between atoms: _8  and  _9
REMARK    7  A    between atoms: _19  and  _20
REMARK    8  A    between atoms: _25  and  _27
REMARK    9  A    between atoms: _27  and  _28
REMARK   10  A    between atoms: _27  and  _30
REMARK   11  A    between atoms: _30  and  _31
REMARK   12  A    between atoms: _34  and  _36
REMARK   13  A    between atoms: _36  and  _37
REMARK   14  A    between atoms: _36  and  _39
REMARK   15  A    between atoms: _39  and  _40
REMARK   16  A    between atoms: _43  and  _45
REMARK   17  A    between atoms: _45  and  _46
REMARK   18  A    between atoms: _45  and  _48
REMARK   19  A    between atoms: _48  and  _49
REMARK   20  A    between atoms: _52  and  _54
REMARK   21  A    between atoms: _54  and  _55
REMARK   22  A    between atoms: _54  and  _57
REMARK   23  A    between atoms: _57  and  _58
REMARK   24  A    between atoms: _61  and  _63
REMARK   25  A    between atoms: _63  and  _64
REMARK   26  A    between atoms: _63  and  _66
REMARK   27  A    between atoms: _66  and  _67
REMARK   28  A    between atoms: _70  and  _72
REMARK   29  A    between atoms: _72  and  _73
REMARK   30  A    between atoms: _75  and  _77
REMARK   31  A    between atoms: _77  and  _78
REMARK   32  A    between atoms: _81  and  _83
REMARK   33  A    between atoms: _83  and  _84
REMARK   34  A    between atoms: _83  and  _86
REMARK   35  A    between atoms: _86  and  _87
REMARK   36  A    between atoms: _90  and  _92
REMARK   37  A    between atoms: _92  and  _93
REMARK   38  A    between atoms: _92  and  _95
REMARK   39  A    between atoms: _95  and  _96
REMARK   40  A    between atoms: _99  and  _101
REMARK   41  A    between atoms: _101  and  _102
REMARK   42  A    between atoms: _101  and  _104
REMARK   43  A    between atoms: _104  and  _105
REMARK   44  A    between atoms: _108  and  _110
REMARK   45  A    between atoms: _110  and  _111
REMARK   46  A    between atoms: _110  and  _113
REMARK   47  A    between atoms: _116  and  _118
REMARK   48  A    between atoms: _118  and  _119
REMARK   49  A    between atoms: _118  and  _121
REMARK   50  A    between atoms: _121  and  _122
REMARK   51  A    between atoms: _122  and  _123
REMARK   52  A    between atoms: _123  and  _124
REMARK   53  A    between atoms: _124  and  _125
REMARK   54  A    between atoms: _129  and  _131
REMARK   55  A    between atoms: _131  and  _132
REMARK   56  A    between atoms: _131  and  _134
REMARK   57  A    between atoms: _134  and  _135
REMARK   58  A    between atoms: _135  and  _136
REMARK   59  A    between atoms: _138  and  _140
REMARK   60  A    between atoms: _140  and  _141
REMARK   61  A    between atoms: _140  and  _143
REMARK   62  A    between atoms: _143  and  _144
REMARK   63  A    between atoms: _147  and  _149
REMARK   64  A    between atoms: _149  and  _150
REMARK   65  A    between atoms: _152  and  _154
REMARK   66  A    between atoms: _154  and  _155
REMARK   67  A    between atoms: _157  and  _159
REMARK   68  A    between atoms: _159  and  _160
REMARK   69  A    between atoms: _159  and  _162
REMARK   70  A    between atoms: _162  and  _163
REMARK   71  A    between atoms: _166  and  _168
REMARK   72  A    between atoms: _168  and  _169
REMARK   73  A    between atoms: _171  and  _173
REMARK   74  A    between atoms: _173  and  _174
REMARK   75  A    between atoms: _176  and  _178
REMARK   76  A    between atoms: _178  and  _179
REMARK   77  A    between atoms: _178  and  _181
REMARK   78  A    between atoms: _181  and  _182
REMARK   79  A    between atoms: _188  and  _190
REMARK   80  A    between atoms: _190  and  _191
REMARK   81  A    between atoms: _190  and  _193
REMARK   82  A    between atoms: _193  and  _194
REMARK   83  A    between atoms: _197  and  _199
REMARK   84  A    between atoms: _199  and  _200
REMARK   85  A    between atoms: _199  and  _202
REMARK   86  A    between atoms: _205  and  _207
REMARK   87  A    between atoms: _207  and  _208
REMARK   88  A    between atoms: _207  and  _210
REMARK   89  A    between atoms: _210  and  _211
REMARK   90  A    between atoms: _215  and  _216
REMARK   91  A    between atoms: _221  and  _223
REMARK   92  A    between atoms: _223  and  _224
REMARK   93  A    between atoms: _223  and  _226
REMARK   94  A    between atoms: _226  and  _227
REMARK   95  A    between atoms: _231  and  _232
REMARK   96  A    between atoms: _237  and  _239
REMARK   97  A    between atoms: _239  and  _240
REMARK   98  A    between atoms: _239  and  _242
REMARK   99  A    between atoms: _245  and  _247
REMARK  100  A    between atoms: _247  and  _248
REMARK  101  A    between atoms: _247  and  _250
REMARK  102  A    between atoms: _250  and  _251
REMARK  103  A    between atoms: _256  and  _258
REMARK  104  A    between atoms: _258  and  _259
REMARK  105  A    between atoms: _258  and  _261
REMARK  106  A    between atoms: _261  and  _262
REMARK  107  A    between atoms: _265  and  _267
REMARK  108  A    between atoms: _267  and  _268
REMARK  109  A    between atoms: _267  and  _270
REMARK  110  A    between atoms: _270  and  _271
REMARK  111  A    between atoms: _274  and  _276
REMARK  112  A    between atoms: _276  and  _277
REMARK  113  A    between atoms: _279  and  _281
REMARK  114  A    between atoms: _281  and  _282
REMARK  115  A    between atoms: _281  and  _284
REMARK  116  A    between atoms: _284  and  _285
REMARK  117  A    between atoms: _285  and  _286
REMARK  118  A    between atoms: _286  and  _287
REMARK  119  A    between atoms: _296  and  _298
REMARK  120  A    between atoms: _298  and  _299
REMARK  121  A    between atoms: _298  and  _301
REMARK  122  A    between atoms: _301  and  _302
REMARK  123  A    between atoms: _302  and  _303
REMARK  124  A    between atoms: _303  and  _304
REMARK  125  A    between atoms: _314  and  _315
REMARK  126  A    between atoms: _320  and  _322
REMARK  127  A    between atoms: _322  and  _323
REMARK  128  A    between atoms: _322  and  _325
REMARK  129  A    between atoms: _325  and  _326
REMARK  130  A    between atoms: _329  and  _331
REMARK  131  A    between atoms: _331  and  _332
REMARK  132  A    between atoms: _331  and  _334
REMARK  133  A    between atoms: _334  and  _335
REMARK  134  A    between atoms: _335  and  _336
REMARK  135  A    between atoms: _339  and  _341
REMARK  136  A    between atoms: _341  and  _342
REMARK  137  A    between atoms: _341  and  _344
REMARK  138  A    between atoms: _344  and  _345
REMARK  139  A    between atoms: _348  and  _350
REMARK  140  A    between atoms: _350  and  _351
REMARK  141  A    between atoms: _350  and  _353
REMARK  142  A    between atoms: _353  and  _354
REMARK  143  A    between atoms: _357  and  _359
REMARK  144  A    between atoms: _359  and  _360
REMARK  145  A    between atoms: _359  and  _362
REMARK  146  A    between atoms: _362  and  _363
REMARK  147  A    between atoms: _366  and  _368
REMARK  148  A    between atoms: _368  and  _369
REMARK  149  A    between atoms: _368  and  _371
REMARK  150  A    between atoms: _371  and  _372
REMARK  151  A    between atoms: _375  and  _377
REMARK  152  A    between atoms: _377  and  _378
REMARK  153  A    between atoms: _380  and  _382
REMARK  154  A    between atoms: _382  and  _383
REMARK  155  A    between atoms: _386  and  _388
REMARK  156  A    between atoms: _388  and  _389
REMARK  157  A    between atoms: _388  and  _391
REMARK  158  A    between atoms: _391  and  _392
REMARK  159  A    between atoms: _395  and  _397
REMARK  160  A    between atoms: _397  and  _398
REMARK  161  A    between atoms: _397  and  _400
REMARK  162  A    between atoms: _400  and  _401
REMARK  163  A    between atoms: _404  and  _406
REMARK  164  A    between atoms: _406  and  _407
REMARK  165  A    between atoms: _406  and  _409
REMARK  166  A    between atoms: _409  and  _410
REMARK  167  A    between atoms: _413  and  _415
REMARK  168  A    between atoms: _415  and  _416
REMARK  169  A    between atoms: _415  and  _418
REMARK  170  A    between atoms: _421  and  _423
REMARK  171  A    between atoms: _423  and  _424
REMARK  172  A    between atoms: _423  and  _426
REMARK  173  A    between atoms: _426  and  _427
REMARK  174  A    between atoms: _427  and  _428
REMARK  175  A    between atoms: _428  and  _429
REMARK  176  A    between atoms: _429  and  _430
REMARK  177  A    between atoms: _434  and  _436
REMARK  178  A    between atoms: _436  and  _437
REMARK  179  A    between atoms: _436  and  _439
REMARK  180  A    between atoms: _439  and  _440
REMARK  181  A    between atoms: _440  and  _441
REMARK  182  A    between atoms: _443  and  _445
REMARK  183  A    between atoms: _445  and  _446
REMARK  184  A    between atoms: _445  and  _448
REMARK  185  A    between atoms: _448  and  _449
REMARK  186  A    between atoms: _452  and  _454
REMARK  187  A    between atoms: _454  and  _455
REMARK  188  A    between atoms: _457  and  _459
REMARK  189  A    between atoms: _459  and  _460
REMARK  190  A    between atoms: _462  and  _464
REMARK  191  A    between atoms: _464  and  _465
REMARK  192  A    between atoms: _464  and  _467
REMARK  193  A    between atoms: _467  and  _468
REMARK  194  A    between atoms: _471  and  _473
REMARK  195  A    between atoms: _473  and  _474
REMARK  196  A    between atoms: _476  and  _478
REMARK  197  A    between atoms: _478  and  _479
REMARK  198  A    between atoms: _481  and  _483
REMARK  199  A    between atoms: _483  and  _484
REMARK  200  A    between atoms: _483  and  _486
REMARK  201  A    between atoms: _486  and  _487
REMARK  202  A    between atoms: _493  and  _495
REMARK  203  A    between atoms: _495  and  _496
REMARK  204  A    between atoms: _495  and  _498
REMARK  205  A    between atoms: _498  and  _499
REMARK  206  A    between atoms: _502  and  _504
REMARK  207  A    between atoms: _504  and  _505
REMARK  208  A    between atoms: _504  and  _507
REMARK  209  A    between atoms: _510  and  _512
REMARK  210  A    between atoms: _512  and  _513
REMARK  211  A    between atoms: _512  and  _515
REMARK  212  A    between atoms: _515  and  _516
REMARK  213  A    between atoms: _519  and  _521
REMARK  214  A    between atoms: _521  and  _522
REMARK  215  A    between atoms: _521  and  _524
REMARK  216  A    between atoms: _524  and  _525
REMARK  217  A    between atoms: _529  and  _530
REMARK  218  A    between atoms: _535  and  _537
REMARK  219  A    between atoms: _537  and  _538
REMARK  220  A    between atoms: _537  and  _540
REMARK  221  A    between atoms: _543  and  _545
REMARK  222  A    between atoms: _545  and  _546
REMARK  223  A    between atoms: _545  and  _548
REMARK  224  A    between atoms: _548  and  _549
REMARK  225  A    between atoms: _554  and  _556
REMARK  226  A    between atoms: _556  and  _557
REMARK  227  A    between atoms: _556  and  _559
REMARK  228  A    between atoms: _559  and  _560
REMARK  229  A    between atoms: _563  and  _565
REMARK  230  A    between atoms: _565  and  _566
REMARK  231  A    between atoms: _565  and  _568
REMARK  232  A    between atoms: _568  and  _569
REMARK  233  A    between atoms: _572  and  _574
REMARK  234  A    between atoms: _574  and  _575
REMARK  235  A    between atoms: _577  and  _579
REMARK  236  A    between atoms: _579  and  _580
REMARK  237  A    between atoms: _579  and  _582
REMARK  238  A    between atoms: _582  and  _583
REMARK  239  A    between atoms: _583  and  _584
REMARK  240  A    between atoms: _584  and  _585
REMARK                            x       y       z     vdW  Elec       q    Type
REMARK                         _______ _______ _______ _____ _____    ______ ____
ROOT
ATOM      1  C   GLY A   5       5.450  -2.088  20.612  0.00  0.00    +0.243 C 
ATOM      2  N   ALA A   6       6.754  -1.729  20.549  0.00  0.00    -0.297 N 
ATOM      3  H   ALA A   6       7.029  -0.744  20.737  0.00  0.00    +0.150 HD
ATOM      4  O   GLY A   5       5.054  -3.217  20.347  0.00  0.00    -0.273 OA
ENDROOT
BRANCH   2   5
ATOM      5  CA  ALA A   6       7.788  -2.729  20.215  0.00  0.00    +0.149 C 
ATOM      6  CB  ALA A   6       8.903  -2.056  19.400  0.00  0.00    +0.031 C 
BRANCH   5   7
ATOM      7  C   ALA A   6       8.398  -3.427  21.433  0.00  0.00    +0.241 C 
ATOM      8  O   ALA A   6       8.868  -2.807  22.390  0.00  0.00    -0.273 OA
ATOM      9  N   ASP A   7       8.395  -4.754  21.382  0.00  0.00    -0.297 N 
ATOM     10  H   ASP A   7       7.915  -5.285  20.627  0.00  0.00    +0.150 HD
BRANCH   9  11
ATOM     11  CA  ASP A   7       9.122  -5.414  22.474  0.00  0.00    +0.160 C 
BRANCH  11  12
ATOM     12  C   ASP A   7      10.630  -5.308  22.434  0.00  0.00    +0.241 C 
ATOM     13  O   ASP A   7      11.325  -5.390  23.430  0.00  0.00    -0.273 OA
ATOM     14  N   ASP A   8      11.123  -5.164  21.218  0.00  0.00    -0.297 N 
ATOM     15  H   ASP A   8      10.442  -5.029  20.444  0.00  0.00    +0.150 HD
BRANCH  14  16
ATOM     16  CA  ASP A   8      12.542  -5.177  20.861  0.00  0.00    +0.160 C 
BRANCH  16  17
ATOM     17  C   ASP A   8      13.000  -3.897  20.238  0.00  0.00    +0.241 C 
ATOM     18  N   THR A   9      14.296  -3.742  20.264  0.00  0.00    -0.295 N 
ATOM     19  H   THR A   9      14.886  -4.430  20.774  0.00  0.00    +0.150 HD
ATOM     20  O   ASP A   8      12.233  -3.112  19.719  0.00  0.00    -0.273 OA
BRANCH  18  21
ATOM     21  CA  THR A   9      14.927  -2.612  19.584  0.00  0.00    +0.176 C 
BRANCH  21  22
ATOM     22  C   THR A   9      15.502  -3.042  18.270  0.00  0.00    +0.243 C 
ATOM     23  O   THR A   9      16.238  -4.012  18.213  0.00  0.00    -0.273 OA
ATOM     24  N   VAL A  10      15.142  -2.299  17.222  0.00  0.00    -0.298 N 
ATOM     25  H   VAL A  10      14.523  -1.476  17.364  0.00  0.00    +0.150 HD
BRANCH  24  26
ATOM     26  CA  VAL A  10      15.614  -2.633  15.857  0.00  0.00    +0.137 C 
BRANCH  26  27
ATOM     27  CB  VAL A  10      14.436  -3.116  14.997  0.00  0.00    +0.026 C 
ATOM     28  CG2 VAL A  10      13.749  -4.266  15.714  0.00  0.00    +0.002 C 
ATOM     29  CG1 VAL A  10      14.884  -3.634  13.617  0.00  0.00    +0.002 C 
ENDBRANCH  26  27
BRANCH  26  30
ATOM     30  C   VAL A  10      16.316  -1.460  15.165  0.00  0.00    +0.227 C 
ATOM     31  O   VAL A  10      15.821  -0.350  15.062  0.00  0.00    -0.286 OA
ENDBRANCH  26  30
ENDBRANCH  24  26
ENDBRANCH  21  22
BRANCH  21  32
ATOM     32  CB  THR A   9      16.048  -2.016  20.463  0.00  0.00    +0.137 C 
ATOM     33  CG2 THR A   9      16.918  -0.917  19.814  0.00  0.00    +0.034 C 
BRANCH  32  34
ATOM     34  OG1 THR A   9      15.394  -1.441  21.596  0.00  0.00    -0.382 OA
ATOM     35  HG1 THR A   9      14.895  -2.146  22.080  0.00  0.00    +0.210 HD
ENDBRANCH  32  34
ENDBRANCH  21  32
ENDBRANCH  18  21
ENDBRANCH  16  17
BRANCH  16  36
ATOM     36  CB  ASP A   8      12.786  -6.201  19.761  0.00  0.00    +0.143 C 
BRANCH  36  37
ATOM     37  CG  ASP A   8      12.471  -7.603  20.266  0.00  0.00    +0.367 C 
ATOM     38  OD2 ASP A   8      12.963  -7.985  21.343  0.00  0.00    -0.246 OA
ATOM     39  OD1 ASP A   8      11.714  -8.302  19.581  0.00  0.00    -0.246 OA
ENDBRANCH  36  37
ENDBRANCH  16  36
ENDBRANCH  14  16
ENDBRANCH  11  12
BRANCH  11  40
ATOM     40  CB  ASP A   7       8.969  -6.926  22.441  0.00  0.00    +0.143 C 
BRANCH  40  41
ATOM     41  CG  ASP A   7       7.623  -7.452  22.824  0.00  0.00    +0.367 C 
ATOM     42  OD2 ASP A   7       6.734  -6.687  23.191  0.00  0.00    -0.246 OA
ATOM     43  OD1 ASP A   7       7.491  -8.660  22.765  0.00  0.00    -0.246 OA
ENDBRANCH  40  41
ENDBRANCH  11  40
ENDBRANCH   9  11
ENDBRANCH   5   7
ENDBRANCH   2   5
BRANCH   1  44
ATOM     44  CA  GLY A   5       4.482  -0.991  21.052  0.00  0.00    +0.176 C 
BRANCH  44  47
ATOM     45  C   THR A   4       5.403   0.356  22.801  0.00  0.00    +0.243 C 
ATOM     46  O   THR A   4       5.127  -0.526  23.600  0.00  0.00    -0.273 OA
ATOM     47  N   GLY A   5       5.102   0.262  21.500  0.00  0.00    -0.295 N 
ATOM     48  H   GLY A   5       5.298   1.040  20.838  0.00  0.00    +0.150 HD
BRANCH  45  49
ATOM     49  CA  THR A   4       6.120   1.635  23.213  0.00  0.00    +0.176 C 
BRANCH  49  51
ATOM     50  C   ASP A   3       7.734   2.041  21.486  0.00  0.00    +0.241 C 
ATOM     51  N   THR A   4       6.704   2.493  22.177  0.00  0.00    -0.295 N 
ATOM     52  H   THR A   4       6.314   3.439  21.990  0.00  0.00    +0.150 HD
ATOM     53  O   ASP A   3       8.177   0.923  21.652  0.00  0.00    -0.273 OA
BRANCH  50  54
ATOM     54  CA  ASP A   3       8.219   2.988  20.416  0.00  0.00    +0.160 C 
BRANCH  54  56
ATOM     55  C   LEU A   2       9.272   5.130  20.594  0.00  0.00    +0.241 C 
ATOM     56  N   ASP A   3       9.348   3.828  20.795  0.00  0.00    -0.297 N 
ATOM     57  H   ASP A   3      10.200   3.408  21.217  0.00  0.00    +0.150 HD
ATOM     58  O   LEU A   2       8.228   5.714  20.311  0.00  0.00    -0.273 OA
BRANCH  55  59
ATOM     59  CA  LEU A   2      10.603   5.847  20.707  0.00  0.00    +0.149 C 
BRANCH  59  61
ATOM     60  C   LEU A   1      11.500   5.678  18.481  0.00  0.00    +0.238 C 
ATOM     61  N   LEU A   2      11.024   6.478  19.440  0.00  0.00    -0.297 N 
ATOM     62  H   LEU A   2      10.953   7.506  19.299  0.00  0.00    +0.150 HD
ATOM     63  O   LEU A   1      11.716   4.487  18.660  0.00  0.00    -0.274 OA
BRANCH  60  64
ATOM     64  CA  LEU A   1      11.713   6.324  17.122  0.00  0.00    +0.145 C 
BRANCH  64  65
ATOM     65  N   LEU A   1      13.095   6.137  16.680  0.00  0.00    -0.238 NA
ATOM     66  H   LEU A   1      13.359   5.264  16.180  0.00  0.00    +0.142 HD
ENDBRANCH  64  65
BRANCH  64  67
ATOM     67  CB  LEU A   1      10.889   5.570  16.070  0.00  0.00    +0.026 C 
BRANCH  67  68
ATOM     68  CG  LEU A   1       9.390   5.660  16.225  0.00  0.00    +0.002 C 
ATOM     69  CD2 LEU A   1       8.846   7.031  15.857  0.00  0.00    +0.000 C 
ATOM     70  CD1 LEU A   1       8.787   4.546  15.371  0.00  0.00    +0.000 C 
ENDBRANCH  67  68
ENDBRANCH  64  67
ENDBRANCH  60  64
ENDBRANCH  59  61
BRANCH  59  71
ATOM     71  CB  LEU A   2      10.453   6.901  21.814  0.00  0.00    +0.029 C 
BRANCH  71  72
ATOM     72  CG  LEU A   2      11.703   7.746  21.934  0.00  0.00    +0.002 C 
ATOM     73  CD2 LEU A   2      11.398   8.884  22.873  0.00  0.00    +0.000 C 
ATOM     74  CD1 LEU A   2      12.921   6.890  22.280  0.00  0.00    +0.000 C 
ENDBRANCH  71  72
ENDBRANCH  59  71
ENDBRANCH  55  59
ENDBRANCH  54  56
BRANCH  54  75
ATOM     75  CB  ASP A   3       8.640   2.220  19.151  0.00  0.00    +0.143 C 
BRANCH  75  76
ATOM     76  CG  ASP A   3       7.537   1.419  18.466  0.00  0.00    +0.367 C 
ATOM     77  OD2 ASP A   3       6.409   1.321  18.980  0.00  0.00    -0.246 OA
ATOM     78  OD1 ASP A   3       7.833   0.876  17.388  0.00  0.00    -0.246 OA
ENDBRANCH  75  76
ENDBRANCH  54  75
ENDBRANCH  50  54
ENDBRANCH  49  51
BRANCH  49  79
ATOM     79  CB  THR A   4       5.156   2.419  24.068  0.00  0.00    +0.137 C 
ATOM     80  CG2 THR A   4       5.883   3.570  24.700  0.00  0.00    +0.034 C 
BRANCH  79  81
ATOM     81  OG1 THR A   4       4.113   2.915  23.240  0.00  0.00    -0.382 OA
ATOM     82  HG1 THR A   4       3.643   2.156  22.812  0.00  0.00    +0.210 HD
ENDBRANCH  79  81
ENDBRANCH  49  79
ENDBRANCH  45  49
ENDBRANCH  44  47
ENDBRANCH   1  44
TORSDOF 35
REMARK  Name = ../refined-set-2016/1hvk/1hvk_pocket.pdb
REMARK  240 active torsions:
REMARK  status: ('A' for Active; 'I' for Inactive)
REMARK    1  A    between atoms: _1  and  _3
REMARK    2  A    between atoms: _3  and  _4
REMARK    3  A    between atoms: _3  and  _6
REMARK    4  A    between atoms: _6  and  _7
REMARK    5  A    between atoms: _7  and  _8
REMARK    6  A    between atoms: _8  and  _9
REMARK    7  A    between atoms: _19  and  _20
REMARK    8  A    between atoms: _25  and  _27
REMARK    9  A    between atoms: _27  and  _28
REMARK   10  A    between atoms: _27  and  _30
REMARK   11  A    between atoms: _30  and  _31
REMARK   12  A    between atoms: _34  and  _36
REMARK   13  A    between atoms: _36  and  _37
REMARK   14  A    between atoms: _36  and  _39
REMARK   15  A    between atoms: _39  and  _40
REMARK   16  A    between atoms: _43  and  _45
REMARK   17  A    between atoms: _45  and  _46
REMARK   18  A    between atoms: _45  and  _48
REMARK   19  A    between atoms: _48  and  _49
REMARK   20  A    between atoms: _52  and  _54
REMARK   21  A    between atoms: _54  and  _55
REMARK   22  A    between atoms: _54  and  _57
REMARK   23  A    between atoms: _57  and  _58
REMARK   24  A    between atoms: _61  and  _63
REMARK   25  A    between atoms: _63  and  _64
REMARK   26  A    between atoms: _63  and  _66
REMARK   27  A    between atoms: _66  and  _67
REMARK   28  A    between atoms: _70  and  _72
REMARK   29  A    between atoms: _72  and  _73
REMARK   30  A    between atoms: _75  and  _77
REMARK   31  A    between atoms: _77  and  _78
REMARK   32  A    between atoms: _81  and  _83
REMARK   33  A    between atoms: _83  and  _84
REMARK   34  A    between atoms: _83  and  _86
REMARK   35  A    between atoms: _86  and  _87
REMARK   36  A    between atoms: _90  and  _92
REMARK   37  A    between atoms: _92  and  _93
REMARK   38  A    between atoms: _92  and  _95
REMARK   39  A    between atoms: _95  and  _96
REMARK   40  A    between atoms: _99  and  _101
REMARK   41  A    between atoms: _101  and  _102
REMARK   42  A    between atoms: _101  and  _104
REMARK   43  A    between atoms: _104  and  _105
REMARK   44  A    between atoms: _108  and  _110
REMARK   45  A    between atoms: _110  and  _111
REMARK   46  A    between atoms: _110  and  _113
REMARK   47  A    between atoms: _116  and  _118
REMARK   48  A    between atoms: _118  and  _119
REMARK   49  A    between atoms: _118  and  _121
REMARK   50  A    between atoms: _121  and  _122
REMARK   51  A    between atoms: _122  and  _123
REMARK   52  A    between atoms: _123  and  _124
REMARK   53  A    between atoms: _124  and  _125
REMARK   54  A    between atoms: _129  and  _131
REMARK   55  A    between atoms: _131  and  _132
REMARK   56  A    between atoms: _131  and  _134
REMARK   57  A    between atoms: _134  and  _135
REMARK   58  A    between atoms: _135  and  _136
REMARK   59  A    between atoms: _138  and  _140
REMARK   60  A    between atoms: _140  and  _141
REMARK   61  A    between atoms: _140  and  _143
REMARK   62  A    between atoms: _143  and  _144
REMARK   63  A    between atoms: _147  and  _149
REMARK   64  A    between atoms: _149  and  _150
REMARK   65  A    between atoms: _152  and  _154
REMARK   66  A    between atoms: _154  and  _155
REMARK   67  A    between atoms: _157  and  _159
REMARK   68  A    between atoms: _159  and  _160
REMARK   69  A    between atoms: _159  and  _162
REMARK   70  A    between atoms: _162  and  _163
REMARK   71  A    between atoms: _166  and  _168
REMARK   72  A    between atoms: _168  and  _169
REMARK   73  A    between atoms: _171  and  _173
REMARK   74  A    between atoms: _173  and  _174
REMARK   75  A    between atoms: _176  and  _178
REMARK   76  A    between atoms: _178  and  _179
REMARK   77  A    between atoms: _178  and  _181
REMARK   78  A    between atoms: _181  and  _182
REMARK   79  A    between atoms: _188  and  _190
REMARK   80  A    between atoms: _190  and  _191
REMARK   81  A    between atoms: _190  and  _193
REMARK   82  A    between atoms: _193  and  _194
REMARK   83  A    between atoms: _197  and  _199
REMARK   84  A    between atoms: _199  and  _200
REMARK   85  A    between atoms: _199  and  _202
REMARK   86  A    between atoms: _205  and  _207
REMARK   87  A    between atoms: _207  and  _208
REMARK   88  A    between atoms: _207  and  _210
REMARK   89  A    between atoms: _210  and  _211
REMARK   90  A    between atoms: _215  and  _216
REMARK   91  A    between atoms: _221  and  _223
REMARK   92  A    between atoms: _223  and  _224
REMARK   93  A    between atoms: _223  and  _226
REMARK   94  A    between atoms: _226  and  _227
REMARK   95  A    between atoms: _231  and  _232
REMARK   96  A    between atoms: _237  and  _239
REMARK   97  A    between atoms: _239  and  _240
REMARK   98  A    between atoms: _239  and  _242
REMARK   99  A    between atoms: _245  and  _247
REMARK  100  A    between atoms: _247  and  _248
REMARK  101  A    between atoms: _247  and  _250
REMARK  102  A    between atoms: _250  and  _251
REMARK  103  A    between atoms: _256  and  _258
REMARK  104  A    between atoms: _258  and  _259
REMARK  105  A    between atoms: _258  and  _261
REMARK  106  A    between atoms: _261  and  _262
REMARK  107  A    between atoms: _265  and  _267
REMARK  108  A    between atoms: _267  and  _268
REMARK  109  A    between atoms: _267  and  _270
REMARK  110  A    between atoms: _270  and  _271
REMARK  111  A    between atoms: _274  and  _276
REMARK  112  A    between atoms: _276  and  _277
REMARK  113  A    between atoms: _279  and  _281
REMARK  114  A    between atoms: _281  and  _282
REMARK  115  A    between atoms: _281  and  _284
REMARK  116  A    between atoms: _284  and  _285
REMARK  117  A    between atoms: _285  and  _286
REMARK  118  A    between atoms: _286  and  _287
REMARK  119  A    between atoms: _296  and  _298
REMARK  120  A    between atoms: _298  and  _299
REMARK  121  A    between atoms: _298  and  _301
REMARK  122  A    between atoms: _301  and  _302
REMARK  123  A    between atoms: _302  and  _303
REMARK  124  A    between atoms: _303  and  _304
REMARK  125  A    between atoms: _314  and  _315
REMARK  126  A    between atoms: _320  and  _322
REMARK  127  A    between atoms: _322  and  _323
REMARK  128  A    between atoms: _322  and  _325
REMARK  129  A    between atoms: _325  and  _326
REMARK  130  A    between atoms: _329  and  _331
REMARK  131  A    between atoms: _331  and  _332
REMARK  132  A    between atoms: _331  and  _334
REMARK  133  A    between atoms: _334  and  _335
REMARK  134  A    between atoms: _335  and  _336
REMARK  135  A    between atoms: _339  and  _341
REMARK  136  A    between atoms: _341  and  _342
REMARK  137  A    between atoms: _341  and  _344
REMARK  138  A    between atoms: _344  and  _345
REMARK  139  A    between atoms: _348  and  _350
REMARK  140  A    between atoms: _350  and  _351
REMARK  141  A    between atoms: _350  and  _353
REMARK  142  A    between atoms: _353  and  _354
REMARK  143  A    between atoms: _357  and  _359
REMARK  144  A    between atoms: _359  and  _360
REMARK  145  A    between atoms: _359  and  _362
REMARK  146  A    between atoms: _362  and  _363
REMARK  147  A    between atoms: _366  and  _368
REMARK  148  A    between atoms: _368  and  _369
REMARK  149  A    between atoms: _368  and  _371
REMARK  150  A    between atoms: _371  and  _372
REMARK  151  A    between atoms: _375  and  _377
REMARK  152  A    between atoms: _377  and  _378
REMARK  153  A    between atoms: _380  and  _382
REMARK  154  A    between atoms: _382  and  _383
REMARK  155  A    between atoms: _386  and  _388
REMARK  156  A    between atoms: _388  and  _389
REMARK  157  A    between atoms: _388  and  _391
REMARK  158  A    between atoms: _391  and  _392
REMARK  159  A    between atoms: _395  and  _397
REMARK  160  A    between atoms: _397  and  _398
REMARK  161  A    between atoms: _397  and  _400
REMARK  162  A    between atoms: _400  and  _401
REMARK  163  A    between atoms: _404  and  _406
REMARK  164  A    between atoms: _406  and  _407
REMARK  165  A    between atoms: _406  and  _409
REMARK  166  A    between atoms: _409  and  _410
REMARK  167  A    between atoms: _413  and  _415
REMARK  168  A    between atoms: _415  and  _416
REMARK  169  A    between atoms: _415  and  _418
REMARK  170  A    between atoms: _421  and  _423
REMARK  171  A    between atoms: _423  and  _424
REMARK  172  A    between atoms: _423  and  _426
REMARK  173  A    between atoms: _426  and  _427
REMARK  174  A    between atoms: _427  and  _428
REMARK  175  A    between atoms: _428  and  _429
REMARK  176  A    between atoms: _429  and  _430
REMARK  177  A    between atoms: _434  and  _436
REMARK  178  A    between atoms: _436  and  _437
REMARK  179  A    between atoms: _436  and  _439
REMARK  180  A    between atoms: _439  and  _440
REMARK  181  A    between atoms: _440  and  _441
REMARK  182  A    between atoms: _443  and  _445
REMARK  183  A    between atoms: _445  and  _446
REMARK  184  A    between atoms: _445  and  _448
REMARK  185  A    between atoms: _448  and  _449
REMARK  186  A    between atoms: _452  and  _454
REMARK  187  A    between atoms: _454  and  _455
REMARK  188  A    between atoms: _457  and  _459
REMARK  189  A    between atoms: _459  and  _460
REMARK  190  A    between atoms: _462  and  _464
REMARK  191  A    between atoms: _464  and  _465
REMARK  192  A    between atoms: _464  and  _467
REMARK  193  A    between atoms: _467  and  _468
REMARK  194  A    between atoms: _471  and  _473
REMARK  195  A    between atoms: _473  and  _474
REMARK  196  A    between atoms: _476  and  _478
REMARK  197  A    between atoms: _478  and  _479
REMARK  198  A    between atoms: _481  and  _483
REMARK  199  A    between atoms: _483  and  _484
REMARK  200  A    between atoms: _483  and  _486
REMARK  201  A    between atoms: _486  and  _487
REMARK  202  A    between atoms: _493  and  _495
REMARK  203  A    between atoms: _495  and  _496
REMARK  204  A    between atoms: _495  and  _498
REMARK  205  A    between atoms: _498  and  _499
REMARK  206  A    between atoms: _502  and  _504
REMARK  207  A    between atoms: _504  and  _505
REMARK  208  A    between atoms: _504  and  _507
REMARK  209  A    between atoms: _510  and  _512
REMARK  210  A    between atoms: _512  and  _513
REMARK  211  A    between atoms: _512  and  _515
REMARK  212  A    between atoms: _515  and  _516
REMARK  213  A    between atoms: _519  and  _521
REMARK  214  A    between atoms: _521  and  _522
REMARK  215  A    between atoms: _521  and  _524
REMARK  216  A    between atoms: _524  and  _525
REMARK  217  A    between atoms: _529  and  _530
REMARK  218  A    between atoms: _535  and  _537
REMARK  219  A    between atoms: _537  and  _538
REMARK  220  A    between atoms: _537  and  _540
REMARK  221  A    between atoms: _543  and  _545
REMARK  222  A    between atoms: _545  and  _546
REMARK  223  A    between atoms: _545  and  _548
REMARK  224  A    between atoms: _548  and  _549
REMARK  225  A    between atoms: _554  and  _556
REMARK  226  A    between atoms: _556  and  _557
REMARK  227  A    between atoms: _556  and  _559
REMARK  228  A    between atoms: _559  and  _560
REMARK  229  A    between atoms: _563  and  _565
REMARK  230  A    between atoms: _565  and  _566
REMARK  231  A    between atoms: _565  and  _568
REMARK  232  A    between atoms: _568  and  _569
REMARK  233  A    between atoms: _572  and  _574
REMARK  234  A    between atoms: _574  and  _575
REMARK  235  A    between atoms: _577  and  _579
REMARK  236  A    between atoms: _579  and  _580
REMARK  237  A    between atoms: _579  and  _582
REMARK  238  A    between atoms: _582  and  _583
REMARK  239  A    between atoms: _583  and  _584
REMARK  240  A    between atoms: _584  and  _585
REMARK                            x       y       z     vdW  Elec       q    Type
REMARK                         _______ _______ _______ _____ _____    ______ ____
ROOT
ATOM      1  C   GLY A   5       4.061  -6.772  11.687  0.00  0.00    +0.243 C 
ATOM      2  N   ILE A   6       3.581  -5.589  11.373  0.00  0.00    -0.297 N 
ATOM      3  H   ILE A   6       4.061  -4.725  11.697  0.00  0.00    +0.150 HD
ATOM      4  O   GLY A   5       3.548  -7.813  11.320  0.00  0.00    -0.273 OA
ENDROOT
BRANCH   2   5
ATOM      5  CA  ILE A   6       2.356  -5.498  10.557  0.00  0.00    +0.149 C 
BRANCH   5   6
ATOM      6  C   ILE A   6       2.227  -6.407   9.322  0.00  0.00    +0.241 C 
ATOM      7  O   ILE A   6       1.286  -7.167   9.125  0.00  0.00    -0.273 OA
ATOM      8  N   GLY A   7       3.223  -6.293   8.465  0.00  0.00    -0.295 N 
ATOM      9  H   GLY A   7       4.095  -5.761   8.662  0.00  0.00    +0.150 HD
BRANCH   8  10
ATOM     10  CA  GLY A   7       2.968  -6.997   7.205  0.00  0.00    +0.176 C 
BRANCH  10  11
ATOM     11  C   GLY A   7       3.668  -8.343   7.078  0.00  0.00    +0.243 C 
ATOM     12  N   GLY A   8       4.205  -8.816   8.188  0.00  0.00    -0.295 N 
ATOM     13  H   GLY A   8       3.993  -8.409   9.121  0.00  0.00    +0.150 HD
ATOM     14  O   GLY A   7       3.778  -8.923   6.018  0.00  0.00    -0.273 OA
BRANCH  12  15
ATOM     15  CA  GLY A   8       5.111  -9.942   8.024  0.00  0.00    +0.176 C 
BRANCH  15  16
ATOM     16  C   GLY A   8       6.413  -9.897   8.810  0.00  0.00    +0.243 C 
ATOM     17  O   GLY A   8       6.620  -9.146   9.750  0.00  0.00    -0.273 OA
ATOM     18  N   PHE A   9       7.296 -10.778   8.396  0.00  0.00    -0.297 N 
ATOM     19  H   PHE A   9       7.105 -11.351   7.550  0.00  0.00    +0.150 HD
BRANCH  18  20
ATOM     20  CA  PHE A   9       8.543 -10.947   9.129  0.00  0.00    +0.153 C 
BRANCH  20  21
ATOM     21  C   PHE A   9       9.775 -10.515   8.351  0.00  0.00    +0.241 C 
ATOM     22  N   ILE A  10      10.742  -9.977   9.066  0.00  0.00    -0.298 N 
ATOM     23  H   ILE A  10      10.603  -9.674  10.051  0.00  0.00    +0.150 HD
ATOM     24  O   PHE A   9       9.906 -10.695   7.153  0.00  0.00    -0.273 OA
BRANCH  22  25
ATOM     25  CA  ILE A  10      12.022  -9.836   8.378  0.00  0.00    +0.137 C 
BRANCH  25  26
ATOM     26  C   ILE A  10      13.130 -10.545   9.125  0.00  0.00    +0.227 C 
ATOM     27  O   ILE A  10      13.000 -10.884  10.289  0.00  0.00    -0.286 OA
ENDBRANCH  25  26
BRANCH  25  28
ATOM     28  CB  ILE A  10      12.390  -8.368   8.274  0.00  0.00    +0.026 C 
ATOM     29  CG2 ILE A  10      11.387  -7.591   7.405  0.00  0.00    +0.002 C 
BRANCH  28  30
ATOM     30  CG1 ILE A  10      12.501  -7.747   9.664  0.00  0.00    +0.002 C 
ATOM     31  CD1 ILE A  10      13.040  -6.306   9.590  0.00  0.00    +0.000 C 
ENDBRANCH  28  30
ENDBRANCH  25  28
ENDBRANCH  22  25
ENDBRANCH  20  21
BRANCH  20  32
ATOM     32  CB  PHE A   9       8.759 -12.442   9.498  0.00  0.00    +0.055 C 
BRANCH  32  33
ATOM     33  CG  PHE A   9       7.810 -12.978  10.549  0.00  0.00    -0.020 A 
ATOM     34  CD2 PHE A   9       8.289 -13.198  11.856  0.00  0.00    -0.004 A 
ATOM     35  CE2 PHE A   9       7.393 -13.622  12.869  0.00  0.00    -0.000 A 
ATOM     36  CZ  PHE A   9       6.035 -13.821  12.558  0.00  0.00    -0.000 A 
ATOM     37  CE1 PHE A   9       5.569 -13.618  11.256  0.00  0.00    -0.000 A 
ATOM     38  CD1 PHE A   9       6.453 -13.198  10.248  0.00  0.00    -0.004 A 
ENDBRANCH  32  33
ENDBRANCH  20  32
ENDBRANCH  18  20
ENDBRANCH  15  16
ENDBRANCH  12  15
ENDBRANCH  10  11
ENDBRANCH   8  10
ENDBRANCH   5   6
BRANCH   5  39
ATOM     39  CB  ILE A   6       2.142  -3.992  10.181  0.00  0.00    +0.027 C 
ATOM     40  CG2 ILE A   6       1.353  -3.684   8.908  0.00  0.00    +0.002 C 
BRANCH  39  41
ATOM     41  CG1 ILE A   6       1.401  -3.286  11.311  0.00  0.00    +0.002 C 
ATOM     42  CD1 ILE A   6       0.024  -3.881  11.556  0.00  0.00    +0.000 C 
ENDBRANCH  39  41
ENDBRANCH   5  39
ENDBRANCH   2   5
BRANCH   1  43
ATOM     43  CA  GLY A   5       5.310  -6.820  12.521  0.00  0.00    +0.176 C 
BRANCH  43  46
ATOM     44  C   GLY A   4       6.890  -8.475  13.169  0.00  0.00    +0.243 C 
ATOM     45  O   GLY A   4       7.129  -7.851  14.188  0.00  0.00    -0.273 OA
ATOM     46  N   GLY A   5       6.022  -8.082  12.282  0.00  0.00    -0.295 N 
ATOM     47  H   GLY A   5       5.838  -8.646  11.428  0.00  0.00    +0.150 HD
BRANCH  44  48
ATOM     48  CA  GLY A   4       7.541  -9.785  12.846  0.00  0.00    +0.176 C 
BRANCH  48  50
ATOM     49  C   ILE A   3       9.855 -10.138  13.010  0.00  0.00    +0.241 C 
ATOM     50  N   GLY A   4       8.717 -10.027  13.651  0.00  0.00    -0.295 N 
ATOM     51  H   GLY A   4       8.663 -10.109  14.686  0.00  0.00    +0.150 HD
ATOM     52  O   ILE A   3       9.964 -10.012  11.802  0.00  0.00    -0.273 OA
BRANCH  49  53
ATOM     53  CA  ILE A   3      11.018 -10.534  13.877  0.00  0.00    +0.149 C 
BRANCH  53  56
ATOM     54  C   MET A   2      12.224 -12.592  13.547  0.00  0.00    +0.241 C 
ATOM     55  O   MET A   2      11.701 -13.093  14.535  0.00  0.00    -0.273 OA
ATOM     56  N   ILE A   3      12.016 -11.329  13.158  0.00  0.00    -0.297 N 
ATOM     57  H   ILE A   3      12.550 -10.921  12.364  0.00  0.00    +0.150 HD
BRANCH  54  58
ATOM     58  CA  MET A   2      13.212 -13.371  12.677  0.00  0.00    +0.149 C 
BRANCH  58  60
ATOM     59  C   LYS A   1      15.561 -13.485  13.205  0.00  0.00    +0.238 C 
ATOM     60  N   MET A   2      14.343 -13.963  13.399  0.00  0.00    -0.297 N 
ATOM     61  H   MET A   2      14.189 -14.752  14.058  0.00  0.00    +0.150 HD
ATOM     62  O   LYS A   1      15.836 -12.694  12.310  0.00  0.00    -0.274 OA
BRANCH  59  63
ATOM     63  CA  LYS A   1      16.604 -14.013  14.207  0.00  0.00    +0.145 C 
BRANCH  63  64
ATOM     64  N   LYS A   1      17.953 -13.993  13.646  0.00  0.00    -0.238 NA
ATOM     65  H   LYS A   1      18.224 -13.310  12.910  0.00  0.00    +0.142 HD
ENDBRANCH  63  64
BRANCH  63  66
ATOM     66  CB  LYS A   1      16.603 -13.157  15.481  0.00  0.00    +0.026 C 
BRANCH  66  67
ATOM     67  CG  LYS A   1      15.392 -13.350  16.381  0.00  0.00    -0.000 C 
BRANCH  67  68
ATOM     68  CD  LYS A   1      15.365 -12.223  17.401  0.00  0.00    -0.024 C 
BRANCH  68  69
ATOM     69  CE  LYS A   1      14.350 -12.472  18.512  0.00  0.00    -0.086 C 
BRANCH  69  70
ATOM     70  NZ  LYS A   1      14.434 -11.333  19.440  0.00  0.00    +0.380 N 
ATOM     71  HZ1 LYS A   1      13.753 -11.468  20.215  0.00  0.00    -0.089 HD
ATOM     72  HZ2 LYS A   1      15.397 -11.275  19.829  0.00  0.00    -0.089 HD
ATOM     73  HZ3 LYS A   1      14.211 -10.455  18.930  0.00  0.00    -0.089 HD
ENDBRANCH  69  70
ENDBRANCH  68  69
ENDBRANCH  67  68
ENDBRANCH  66  67
ENDBRANCH  63  66
ENDBRANCH  59  63
ENDBRANCH  58  60
BRANCH  58  74
ATOM     74  CB  MET A   2      12.510 -14.461  11.864  0.00  0.00    +0.041 C 
BRANCH  74  75
ATOM     75  CG  MET A   2      13.261 -14.293  10.542  0.00  0.00    +0.060 C 
BRANCH  75  76
ATOM     76  SD  MET A   2      13.034 -15.646   9.470  0.00  0.00    -0.139 S 
ATOM     77  CE  MET A   2      11.444 -15.139   8.770  0.00  0.00    +0.069 C 
ENDBRANCH  75  76
ENDBRANCH  74  75
ENDBRANCH  58  74
ENDBRANCH  54  58
ENDBRANCH  53  56
BRANCH  53  78
ATOM     78  CB  ILE A   3      11.609  -9.293  14.493  0.00  0.00    +0.027 C 
ATOM     79  CG2 ILE A   3      12.516  -9.639  15.628  0.00  0.00    +0.002 C 
BRANCH  78  80
ATOM     80  CG1 ILE A   3      12.337  -8.424  13.508  0.00  0.00    +0.002 C 
ATOM     81  CD1 ILE A   3      11.995  -6.968  13.799  0.00  0.00    +0.000 C 
ENDBRANCH  78  80
ENDBRANCH  53  78
ENDBRANCH  49  53
ENDBRANCH  48  50
ENDBRANCH  44  48
ENDBRANCH  43  46
ENDBRANCH   1  43
TORSDOF 36
REMARK  Name = ../refined-set-2016/1hvk/1hvk_pocket.pdb
REMARK  240 active torsions:
REMARK  status: ('A' for Active; 'I' for Inactive)
REMARK    1  A    between atoms: _1  and  _3
REMARK    2  A    between atoms: _3  and  _4
REMARK    3  A    between atoms: _3  and  _6
REMARK    4  A    between atoms: _6  and  _7
REMARK    5  A    between atoms: _7  and  _8
REMARK    6  A    between atoms: _8  and  _9
REMARK    7  A    between atoms: _19  and  _20
REMARK    8  A    between atoms: _25  and  _27
REMARK    9  A    between atoms: _27  and  _28
REMARK   10  A    between atoms: _27  and  _30
REMARK   11  A    between atoms: _30  and  _31
REMARK   12  A    between atoms: _34  and  _36
REMARK   13  A    between atoms: _36  and  _37
REMARK   14  A    between atoms: _36  and  _39
REMARK   15  A    between atoms: _39  and  _40
REMARK   16  A    between atoms: _43  and  _45
REMARK   17  A    between atoms: _45  and  _46
REMARK   18  A    between atoms: _45  and  _48
REMARK   19  A    between atoms: _48  and  _49
REMARK   20  A    between atoms: _52  and  _54
REMARK   21  A    between atoms: _54  and  _55
REMARK   22  A    between atoms: _54  and  _57
REMARK   23  A    between atoms: _57  and  _58
REMARK   24  A    between atoms: _61  and  _63
REMARK   25  A    between atoms: _63  and  _64
REMARK   26  A    between atoms: _63  and  _66
REMARK   27  A    between atoms: _66  and  _67
REMARK   28  A    between atoms: _70  and  _72
REMARK   29  A    between atoms: _72  and  _73
REMARK   30  A    between atoms: _75  and  _77
REMARK   31  A    between atoms: _77  and  _78
REMARK   32  A    between atoms: _81  and  _83
REMARK   33  A    between atoms: _83  and  _84
REMARK   34  A    between atoms: _83  and  _86
REMARK   35  A    between atoms: _86  and  _87
REMARK   36  A    between atoms: _90  and  _92
REMARK   37  A    between atoms: _92  and  _93
REMARK   38  A    between atoms: _92  and  _95
REMARK   39  A    between atoms: _95  and  _96
REMARK   40  A    between atoms: _99  and  _101
REMARK   41  A    between atoms: _101  and  _102
REMARK   42  A    between atoms: _101  and  _104
REMARK   43  A    between atoms: _104  and  _105
REMARK   44  A    between atoms: _108  and  _110
REMARK   45  A    between atoms: _110  and  _111
REMARK   46  A    between atoms: _110  and  _113
REMARK   47  A    between atoms: _116  and  _118
REMARK   48  A    between atoms: _118  and  _119
REMARK   49  A    between atoms: _118  and  _121
REMARK   50  A    between atoms: _121  and  _122
REMARK   51  A    between atoms: _122  and  _123
REMARK   52  A    between atoms: _123  and  _124
REMARK   53  A    between atoms: _124  and  _125
REMARK   54  A    between atoms: _129  and  _131
REMARK   55  A    between atoms: _131  and  _132
REMARK   56  A    between atoms: _131  and  _134
REMARK   57  A    between atoms: _134  and  _135
REMARK   58  A    between atoms: _135  and  _136
REMARK   59  A    between atoms: _138  and  _140
REMARK   60  A    between atoms: _140  and  _141
REMARK   61  A    between atoms: _140  and  _143
REMARK   62  A    between atoms: _143  and  _144
REMARK   63  A    between atoms: _147  and  _149
REMARK   64  A    between atoms: _149  and  _150
REMARK   65  A    between atoms: _152  and  _154
REMARK   66  A    between atoms: _154  and  _155
REMARK   67  A    between atoms: _157  and  _159
REMARK   68  A    between atoms: _159  and  _160
REMARK   69  A    between atoms: _159  and  _162
REMARK   70  A    between atoms: _162  and  _163
REMARK   71  A    between atoms: _166  and  _168
REMARK   72  A    between atoms: _168  and  _169
REMARK   73  A    between atoms: _171  and  _173
REMARK   74  A    between atoms: _173  and  _174
REMARK   75  A    between atoms: _176  and  _178
REMARK   76  A    between atoms: _178  and  _179
REMARK   77  A    between atoms: _178  and  _181
REMARK   78  A    between atoms: _181  and  _182
REMARK   79  A    between atoms: _188  and  _190
REMARK   80  A    between atoms: _190  and  _191
REMARK   81  A    between atoms: _190  and  _193
REMARK   82  A    between atoms: _193  and  _194
REMARK   83  A    between atoms: _197  and  _199
REMARK   84  A    between atoms: _199  and  _200
REMARK   85  A    between atoms: _199  and  _202
REMARK   86  A    between atoms: _205  and  _207
REMARK   87  A    between atoms: _207  and  _208
REMARK   88  A    between atoms: _207  and  _210
REMARK   89  A    between atoms: _210  and  _211
REMARK   90  A    between atoms: _215  and  _216
REMARK   91  A    between atoms: _221  and  _223
REMARK   92  A    between atoms: _223  and  _224
REMARK   93  A    between atoms: _223  and  _226
REMARK   94  A    between atoms: _226  and  _227
REMARK   95  A    between atoms: _231  and  _232
REMARK   96  A    between atoms: _237  and  _239
REMARK   97  A    between atoms: _239  and  _240
REMARK   98  A    between atoms: _239  and  _242
REMARK   99  A    between atoms: _245  and  _247
REMARK  100  A    between atoms: _247  and  _248
REMARK  101  A    between atoms: _247  and  _250
REMARK  102  A    between atoms: _250  and  _251
REMARK  103  A    between atoms: _256  and  _258
REMARK  104  A    between atoms: _258  and  _259
REMARK  105  A    between atoms: _258  and  _261
REMARK  106  A    between atoms: _261  and  _262
REMARK  107  A    between atoms: _265  and  _267
REMARK  108  A    between atoms: _267  and  _268
REMARK  109  A    between atoms: _267  and  _270
REMARK  110  A    between atoms: _270  and  _271
REMARK  111  A    between atoms: _274  and  _276
REMARK  112  A    between atoms: _276  and  _277
REMARK  113  A    between atoms: _279  and  _281
REMARK  114  A    between atoms: _281  and  _282
REMARK  115  A    between atoms: _281  and  _284
REMARK  116  A    between atoms: _284  and  _285
REMARK  117  A    between atoms: _285  and  _286
REMARK  118  A    between atoms: _286  and  _287
REMARK  119  A    between atoms: _296  and  _298
REMARK  120  A    between atoms: _298  and  _299
REMARK  121  A    between atoms: _298  and  _301
REMARK  122  A    between atoms: _301  and  _302
REMARK  123  A    between atoms: _302  and  _303
REMARK  124  A    between atoms: _303  and  _304
REMARK  125  A    between atoms: _314  and  _315
REMARK  126  A    between atoms: _320  and  _322
REMARK  127  A    between atoms: _322  and  _323
REMARK  128  A    between atoms: _322  and  _325
REMARK  129  A    between atoms: _325  and  _326
REMARK  130  A    between atoms: _329  and  _331
REMARK  131  A    between atoms: _331  and  _332
REMARK  132  A    between atoms: _331  and  _334
REMARK  133  A    between atoms: _334  and  _335
REMARK  134  A    between atoms: _335  and  _336
REMARK  135  A    between atoms: _339  and  _341
REMARK  136  A    between atoms: _341  and  _342
REMARK  137  A    between atoms: _341  and  _344
REMARK  138  A    between atoms: _344  and  _345
REMARK  139  A    between atoms: _348  and  _350
REMARK  140  A    between atoms: _350  and  _351
REMARK  141  A    between atoms: _350  and  _353
REMARK  142  A    between atoms: _353  and  _354
REMARK  143  A    between atoms: _357  and  _359
REMARK  144  A    between atoms: _359  and  _360
REMARK  145  A    between atoms: _359  and  _362
REMARK  146  A    between atoms: _362  and  _363
REMARK  147  A    between atoms: _366  and  _368
REMARK  148  A    between atoms: _368  and  _369
REMARK  149  A    between atoms: _368  and  _371
REMARK  150  A    between atoms: _371  and  _372
REMARK  151  A    between atoms: _375  and  _377
REMARK  152  A    between atoms: _377  and  _378
REMARK  153  A    between atoms: _380  and  _382
REMARK  154  A    between atoms: _382  and  _383
REMARK  155  A    between atoms: _386  and  _388
REMARK  156  A    between atoms: _388  and  _389
REMARK  157  A    between atoms: _388  and  _391
REMARK  158  A    between atoms: _391  and  _392
REMARK  159  A    between atoms: _395  and  _397
REMARK  160  A    between atoms: _397  and  _398
REMARK  161  A    between atoms: _397  and  _400
REMARK  162  A    between atoms: _400  and  _401
REMARK  163  A    between atoms: _404  and  _406
REMARK  164  A    between atoms: _406  and  _407
REMARK  165  A    between atoms: _406  and  _409
REMARK  166  A    between atoms: _409  and  _410
REMARK  167  A    between atoms: _413  and  _415
REMARK  168  A    between atoms: _415  and  _416
REMARK  169  A    between atoms: _415  and  _418
REMARK  170  A    between atoms: _421  and  _423
REMARK  171  A    between atoms: _423  and  _424
REMARK  172  A    between atoms: _423  and  _426
REMARK  173  A    between atoms: _426  and  _427
REMARK  174  A    between atoms: _427  and  _428
REMARK  175  A    between atoms: _428  and  _429
REMARK  176  A    between atoms: _429  and  _430
REMARK  177  A    between atoms: _434  and  _436
REMARK  178  A    between atoms: _436  and  _437
REMARK  179  A    between atoms: _436  and  _439
REMARK  180  A    between atoms: _439  and  _440
REMARK  181  A    between atoms: _440  and  _441
REMARK  182  A    between atoms: _443  and  _445
REMARK  183  A    between atoms: _445  and  _446
REMARK  184  A    between atoms: _445  and  _448
REMARK  185  A    between atoms: _448  and  _449
REMARK  186  A    between atoms: _452  and  _454
REMARK  187  A    between atoms: _454  and  _455
REMARK  188  A    between atoms: _457  and  _459
REMARK  189  A    between atoms: _459  and  _460
REMARK  190  A    between atoms: _462  and  _464
REMARK  191  A    between atoms: _464  and  _465
REMARK  192  A    between atoms: _464  and  _467
REMARK  193  A    between atoms: _467  and  _468
REMARK  194  A    between atoms: _471  and  _473
REMARK  195  A    between atoms: _473  and  _474
REMARK  196  A    between atoms: _476  and  _478
REMARK  197  A    between atoms: _478  and  _479
REMARK  198  A    between atoms: _481  and  _483
REMARK  199  A    between atoms: _483  and  _484
REMARK  200  A    between atoms: _483  and  _486
REMARK  201  A    between atoms: _486  and  _487
REMARK  202  A    between atoms: _493  and  _495
REMARK  203  A    between atoms: _495  and  _496
REMARK  204  A    between atoms: _495  and  _498
REMARK  205  A    between atoms: _498  and  _499
REMARK  206  A    between atoms: _502  and  _504
REMARK  207  A    between atoms: _504  and  _505
REMARK  208  A    between atoms: _504  and  _507
REMARK  209  A    between atoms: _510  and  _512
REMARK  210  A    between atoms: _512  and  _513
REMARK  211  A    between atoms: _512  and  _515
REMARK  212  A    between atoms: _515  and  _516
REMARK  213  A    between atoms: _519  and  _521
REMARK  214  A    between atoms: _521  and  _522
REMARK  215  A    between atoms: _521  and  _524
REMARK  216  A    between atoms: _524  and  _525
REMARK  217  A    between atoms: _529  and  _530
REMARK  218  A    between atoms: _535  and  _537
REMARK  219  A    between atoms: _537  and  _538
REMARK  220  A    between atoms: _537  and  _540
REMARK  221  A    between atoms: _543  and  _545
REMARK  222  A    between atoms: _545  and  _546
REMARK  223  A    between atoms: _545  and  _548
REMARK  224  A    between atoms: _548  and  _549
REMARK  225  A    between atoms: _554  and  _556
REMARK  226  A    between atoms: _556  and  _557
REMARK  227  A    between atoms: _556  and  _559
REMARK  228  A    between atoms: _559  and  _560
REMARK  229  A    between atoms: _563  and  _565
REMARK  230  A    between atoms: _565  and  _566
REMARK  231  A    between atoms: _565  and  _568
REMARK  232  A    between atoms: _568  and  _569
REMARK  233  A    between atoms: _572  and  _574
REMARK  234  A    between atoms: _574  and  _575
REMARK  235  A    between atoms: _577  and  _579
REMARK  236  A    between atoms: _579  and  _580
REMARK  237  A    between atoms: _579  and  _582
REMARK  238  A    between atoms: _582  and  _583
REMARK  239  A    between atoms: _583  and  _584
REMARK  240  A    between atoms: _584  and  _585
REMARK                            x       y       z     vdW  Elec       q    Type
REMARK                         _______ _______ _______ _____ _____    ______ ____
ROOT
ATOM      1  CA  VAL A   1      17.708  -9.563  11.496  0.00  0.00    +0.133 C 
ENDROOT
BRANCH   1   2
ATOM      2  CB  VAL A   1      16.920  -8.671  12.508  0.00  0.00    +0.023 C 
ATOM      3  CG2 VAL A   1      16.290  -9.489  13.657  0.00  0.00    +0.002 C 
ATOM      4  CG1 VAL A   1      15.862  -7.816  11.809  0.00  0.00    +0.002 C 
ENDBRANCH   1   2
BRANCH   1   5
ATOM      5  N   VAL A   1      16.799 -10.514  10.828  0.00  0.00    -0.239 NA
ATOM      6  H   VAL A   1      16.497 -11.381  11.316  0.00  0.00    +0.142 HD
ENDBRANCH   1   5
BRANCH   1   7
ATOM      7  C   VAL A   1      18.821 -10.285  12.246  0.00  0.00    +0.224 C 
ATOM      8  O   VAL A   1      18.754 -11.475  12.550  0.00  0.00    -0.287 OA
ENDBRANCH   1   7
TORSDOF 3
REMARK  Name = ../refined-set-2016/1hvk/1hvk_pocket.pdb
REMARK  240 active torsions:
REMARK  status: ('A' for Active; 'I' for Inactive)
REMARK    1  A    between atoms: _1  and  _3
REMARK    2  A    between atoms: _3  and  _4
REMARK    3  A    between atoms: _3  and  _6
REMARK    4  A    between atoms: _6  and  _7
REMARK    5  A    between atoms: _7  and  _8
REMARK    6  A    between atoms: _8  and  _9
REMARK    7  A    between atoms: _19  and  _20
REMARK    8  A    between atoms: _25  and  _27
REMARK    9  A    between atoms: _27  and  _28
REMARK   10  A    between atoms: _27  and  _30
REMARK   11  A    between atoms: _30  and  _31
REMARK   12  A    between atoms: _34  and  _36
REMARK   13  A    between atoms: _36  and  _37
REMARK   14  A    between atoms: _36  and  _39
REMARK   15  A    between atoms: _39  and  _40
REMARK   16  A    between atoms: _43  and  _45
REMARK   17  A    between atoms: _45  and  _46
REMARK   18  A    between atoms: _45  and  _48
REMARK   19  A    between atoms: _48  and  _49
REMARK   20  A    between atoms: _52  and  _54
REMARK   21  A    between atoms: _54  and  _55
REMARK   22  A    between atoms: _54  and  _57
REMARK   23  A    between atoms: _57  and  _58
REMARK   24  A    between atoms: _61  and  _63
REMARK   25  A    between atoms: _63  and  _64
REMARK   26  A    between atoms: _63  and  _66
REMARK   27  A    between atoms: _66  and  _67
REMARK   28  A    between atoms: _70  and  _72
REMARK   29  A    between atoms: _72  and  _73
REMARK   30  A    between atoms: _75  and  _77
REMARK   31  A    between atoms: _77  and  _78
REMARK   32  A    between atoms: _81  and  _83
REMARK   33  A    between atoms: _83  and  _84
REMARK   34  A    between atoms: _83  and  _86
REMARK   35  A    between atoms: _86  and  _87
REMARK   36  A    between atoms: _90  and  _92
REMARK   37  A    between atoms: _92  and  _93
REMARK   38  A    between atoms: _92  and  _95
REMARK   39  A    between atoms: _95  and  _96
REMARK   40  A    between atoms: _99  and  _101
REMARK   41  A    between atoms: _101  and  _102
REMARK   42  A    between atoms: _101  and  _104
REMARK   43  A    between atoms: _104  and  _105
REMARK   44  A    between atoms: _108  and  _110
REMARK   45  A    between atoms: _110  and  _111
REMARK   46  A    between atoms: _110  and  _113
REMARK   47  A    between atoms: _116  and  _118
REMARK   48  A    between atoms: _118  and  _119
REMARK   49  A    between atoms: _118  and  _121
REMARK   50  A    between atoms: _121  and  _122
REMARK   51  A    between atoms: _122  and  _123
REMARK   52  A    between atoms: _123  and  _124
REMARK   53  A    between atoms: _124  and  _125
REMARK   54  A    between atoms: _129  and  _131
REMARK   55  A    between atoms: _131  and  _132
REMARK   56  A    between atoms: _131  and  _134
REMARK   57  A    between atoms: _134  and  _135
REMARK   58  A    between atoms: _135  and  _136
REMARK   59  A    between atoms: _138  and  _140
REMARK   60  A    between atoms: _140  and  _141
REMARK   61  A    between atoms: _140  and  _143
REMARK   62  A    between atoms: _143  and  _144
REMARK   63  A    between atoms: _147  and  _149
REMARK   64  A    between atoms: _149  and  _150
REMARK   65  A    between atoms: _152  and  _154
REMARK   66  A    between atoms: _154  and  _155
REMARK   67  A    between atoms: _157  and  _159
REMARK   68  A    between atoms: _159  and  _160
REMARK   69  A    between atoms: _159  and  _162
REMARK   70  A    between atoms: _162  and  _163
REMARK   71  A    between atoms: _166  and  _168
REMARK   72  A    between atoms: _168  and  _169
REMARK   73  A    between atoms: _171  and  _173
REMARK   74  A    between atoms: _173  and  _174
REMARK   75  A    between atoms: _176  and  _178
REMARK   76  A    between atoms: _178  and  _179
REMARK   77  A    between atoms: _178  and  _181
REMARK   78  A    between atoms: _181  and  _182
REMARK   79  A    between atoms: _188  and  _190
REMARK   80  A    between atoms: _190  and  _191
REMARK   81  A    between atoms: _190  and  _193
REMARK   82  A    between atoms: _193  and  _194
REMARK   83  A    between atoms: _197  and  _199
REMARK   84  A    between atoms: _199  and  _200
REMARK   85  A    between atoms: _199  and  _202
REMARK   86  A    between atoms: _205  and  _207
REMARK   87  A    between atoms: _207  and  _208
REMARK   88  A    between atoms: _207  and  _210
REMARK   89  A    between atoms: _210  and  _211
REMARK   90  A    between atoms: _215  and  _216
REMARK   91  A    between atoms: _221  and  _223
REMARK   92  A    between atoms: _223  and  _224
REMARK   93  A    between atoms: _223  and  _226
REMARK   94  A    between atoms: _226  and  _227
REMARK   95  A    between atoms: _231  and  _232
REMARK   96  A    between atoms: _237  and  _239
REMARK   97  A    between atoms: _239  and  _240
REMARK   98  A    between atoms: _239  and  _242
REMARK   99  A    between atoms: _245  and  _247
REMARK  100  A    between atoms: _247  and  _248
REMARK  101  A    between atoms: _247  and  _250
REMARK  102  A    between atoms: _250  and  _251
REMARK  103  A    between atoms: _256  and  _258
REMARK  104  A    between atoms: _258  and  _259
REMARK  105  A    between atoms: _258  and  _261
REMARK  106  A    between atoms: _261  and  _262
REMARK  107  A    between atoms: _265  and  _267
REMARK  108  A    between atoms: _267  and  _268
REMARK  109  A    between atoms: _267  and  _270
REMARK  110  A    between atoms: _270  and  _271
REMARK  111  A    between atoms: _274  and  _276
REMARK  112  A    between atoms: _276  and  _277
REMARK  113  A    between atoms: _279  and  _281
REMARK  114  A    between atoms: _281  and  _282
REMARK  115  A    between atoms: _281  and  _284
REMARK  116  A    between atoms: _284  and  _285
REMARK  117  A    between atoms: _285  and  _286
REMARK  118  A    between atoms: _286  and  _287
REMARK  119  A    between atoms: _296  and  _298
REMARK  120  A    between atoms: _298  and  _299
REMARK  121  A    between atoms: _298  and  _301
REMARK  122  A    between atoms: _301  and  _302
REMARK  123  A    between atoms: _302  and  _303
REMARK  124  A    between atoms: _303  and  _304
REMARK  125  A    between atoms: _314  and  _315
REMARK  126  A    between atoms: _320  and  _322
REMARK  127  A    between atoms: _322  and  _323
REMARK  128  A    between atoms: _322  and  _325
REMARK  129  A    between atoms: _325  and  _326
REMARK  130  A    between atoms: _329  and  _331
REMARK  131  A    between atoms: _331  and  _332
REMARK  132  A    between atoms: _331  and  _334
REMARK  133  A    between atoms: _334  and  _335
REMARK  134  A    between atoms: _335  and  _336
REMARK  135  A    between atoms: _339  and  _341
REMARK  136  A    between atoms: _341  and  _342
REMARK  137  A    between atoms: _341  and  _344
REMARK  138  A    between atoms: _344  and  _345
REMARK  139  A    between atoms: _348  and  _350
REMARK  140  A    between atoms: _350  and  _351
REMARK  141  A    between atoms: _350  and  _353
REMARK  142  A    between atoms: _353  and  _354
REMARK  143  A    between atoms: _357  and  _359
REMARK  144  A    between atoms: _359  and  _360
REMARK  145  A    between atoms: _359  and  _362
REMARK  146  A    between atoms: _362  and  _363
REMARK  147  A    between atoms: _366  and  _368
REMARK  148  A    between atoms: _368  and  _369
REMARK  149  A    between atoms: _368  and  _371
REMARK  150  A    between atoms: _371  and  _372
REMARK  151  A    between atoms: _375  and  _377
REMARK  152  A    between atoms: _377  and  _378
REMARK  153  A    between atoms: _380  and  _382
REMARK  154  A    between atoms: _382  and  _383
REMARK  155  A    between atoms: _386  and  _388
REMARK  156  A    between atoms: _388  and  _389
REMARK  157  A    between atoms: _388  and  _391
REMARK  158  A    between atoms: _391  and  _392
REMARK  159  A    between atoms: _395  and  _397
REMARK  160  A    between atoms: _397  and  _398
REMARK  161  A    between atoms: _397  and  _400
REMARK  162  A    between atoms: _400  and  _401
REMARK  163  A    between atoms: _404  and  _406
REMARK  164  A    between atoms: _406  and  _407
REMARK  165  A    between atoms: _406  and  _409
REMARK  166  A    between atoms: _409  and  _410
REMARK  167  A    between atoms: _413  and  _415
REMARK  168  A    between atoms: _415  and  _416
REMARK  169  A    between atoms: _415  and  _418
REMARK  170  A    between atoms: _421  and  _423
REMARK  171  A    between atoms: _423  and  _424
REMARK  172  A    between atoms: _423  and  _426
REMARK  173  A    between atoms: _426  and  _427
REMARK  174  A    between atoms: _427  and  _428
REMARK  175  A    between atoms: _428  and  _429
REMARK  176  A    between atoms: _429  and  _430
REMARK  177  A    between atoms: _434  and  _436
REMARK  178  A    between atoms: _436  and  _437
REMARK  179  A    between atoms: _436  and  _439
REMARK  180  A    between atoms: _439  and  _440
REMARK  181  A    between atoms: _440  and  _441
REMARK  182  A    between atoms: _443  and  _445
REMARK  183  A    between atoms: _445  and  _446
REMARK  184  A    between atoms: _445  and  _448
REMARK  185  A    between atoms: _448  and  _449
REMARK  186  A    between atoms: _452  and  _454
REMARK  187  A    between atoms: _454  and  _455
REMARK  188  A    between atoms: _457  and  _459
REMARK  189  A    between atoms: _459  and  _460
REMARK  190  A    between atoms: _462  and  _464
REMARK  191  A    between atoms: _464  and  _465
REMARK  192  A    between atoms: _464  and  _467
REMARK  193  A    between atoms: _467  and  _468
REMARK  194  A    between atoms: _471  and  _473
REMARK  195  A    between atoms: _473  and  _474
REMARK  196  A    between atoms: _476  and  _478
REMARK  197  A    between atoms: _478  and  _479
REMARK  198  A    between atoms: _481  and  _483
REMARK  199  A    between atoms: _483  and  _484
REMARK  200  A    between atoms: _483  and  _486
REMARK  201  A    between atoms: _486  and  _487
REMARK  202  A    between atoms: _493  and  _495
REMARK  203  A    between atoms: _495  and  _496
REMARK  204  A    between atoms: _495  and  _498
REMARK  205  A    between atoms: _498  and  _499
REMARK  206  A    between atoms: _502  and  _504
REMARK  207  A    between atoms: _504  and  _505
REMARK  208  A    between atoms: _504  and  _507
REMARK  209  A    between atoms: _510  and  _512
REMARK  210  A    between atoms: _512  and  _513
REMARK  211  A    between atoms: _512  and  _515
REMARK  212  A    between atoms: _515  and  _516
REMARK  213  A    between atoms: _519  and  _521
REMARK  214  A    between atoms: _521  and  _522
REMARK  215  A    between atoms: _521  and  _524
REMARK  216  A    between atoms: _524  and  _525
REMARK  217  A    between atoms: _529  and  _530
REMARK  218  A    between atoms: _535  and  _537
REMARK  219  A    between atoms: _537  and  _538
REMARK  220  A    between atoms: _537  and  _540
REMARK  221  A    between atoms: _543  and  _545
REMARK  222  A    between atoms: _545  and  _546
REMARK  223  A    between atoms: _545  and  _548
REMARK  224  A    between atoms: _548  and  _549
REMARK  225  A    between atoms: _554  and  _556
REMARK  226  A    between atoms: _556  and  _557
REMARK  227  A    between atoms: _556  and  _559
REMARK  228  A    between atoms: _559  and  _560
REMARK  229  A    between atoms: _563  and  _565
REMARK  230  A    between atoms: _565  and  _566
REMARK  231  A    between atoms: _565  and  _568
REMARK  232  A    between atoms: _568  and  _569
REMARK  233  A    between atoms: _572  and  _574
REMARK  234  A    between atoms: _574  and  _575
REMARK  235  A    between atoms: _577  and  _579
REMARK  236  A    between atoms: _579  and  _580
REMARK  237  A    between atoms: _579  and  _582
REMARK  238  A    between atoms: _582  and  _583
REMARK  239  A    between atoms: _583  and  _584
REMARK  240  A    between atoms: _584  and  _585
REMARK                            x       y       z     vdW  Elec       q    Type
REMARK                         _______ _______ _______ _____ _____    ______ ____
ROOT
ATOM      1  CA  LEU A   1      18.482  -6.317  16.432  0.00  0.00    +0.133 C 
ENDROOT
BRANCH   1   2
ATOM      2  N   LEU A   1      18.618  -5.573  17.682  0.00  0.00    -0.239 NA
ATOM      3  H   LEU A   1      17.878  -4.894  17.950  0.00  0.00    +0.142 HD
ENDBRANCH   1   2
BRANCH   1   4
ATOM      4  C   LEU A   1      18.786  -5.410  15.255  0.00  0.00    +0.224 C 
ATOM      5  O   LEU A   1      18.402  -4.250  15.199  0.00  0.00    -0.287 OA
ENDBRANCH   1   4
BRANCH   1   6
ATOM      6  CB  LEU A   1      17.058  -6.869  16.298  0.00  0.00    +0.025 C 
BRANCH   6   7
ATOM      7  CG  LEU A   1      16.478  -7.538  17.552  0.00  0.00    +0.002 C 
ATOM      8  CD2 LEU A   1      17.235  -8.768  17.991  0.00  0.00    +0.000 C 
ATOM      9  CD1 LEU A   1      15.076  -7.996  17.261  0.00  0.00    +0.000 C 
ENDBRANCH   6   7
ENDBRANCH   1   6
TORSDOF 4
REMARK  Name = ../refined-set-2016/1hvk/1hvk_pocket.pdb
REMARK  240 active torsions:
REMARK  status: ('A' for Active; 'I' for Inactive)
REMARK    1  A    between atoms: _1  and  _3
REMARK    2  A    between atoms: _3  and  _4
REMARK    3  A    between atoms: _3  and  _6
REMARK    4  A    between atoms: _6  and  _7
REMARK    5  A    between atoms: _7  and  _8
REMARK    6  A    between atoms: _8  and  _9
REMARK    7  A    between atoms: _19  and  _20
REMARK    8  A    between atoms: _25  and  _27
REMARK    9  A    between atoms: _27  and  _28
REMARK   10  A    between atoms: _27  and  _30
REMARK   11  A    between atoms: _30  and  _31
REMARK   12  A    between atoms: _34  and  _36
REMARK   13  A    between atoms: _36  and  _37
REMARK   14  A    between atoms: _36  and  _39
REMARK   15  A    between atoms: _39  and  _40
REMARK   16  A    between atoms: _43  and  _45
REMARK   17  A    between atoms: _45  and  _46
REMARK   18  A    between atoms: _45  and  _48
REMARK   19  A    between atoms: _48  and  _49
REMARK   20  A    between atoms: _52  and  _54
REMARK   21  A    between atoms: _54  and  _55
REMARK   22  A    between atoms: _54  and  _57
REMARK   23  A    between atoms: _57  and  _58
REMARK   24  A    between atoms: _61  and  _63
REMARK   25  A    between atoms: _63  and  _64
REMARK   26  A    between atoms: _63  and  _66
REMARK   27  A    between atoms: _66  and  _67
REMARK   28  A    between atoms: _70  and  _72
REMARK   29  A    between atoms: _72  and  _73
REMARK   30  A    between atoms: _75  and  _77
REMARK   31  A    between atoms: _77  and  _78
REMARK   32  A    between atoms: _81  and  _83
REMARK   33  A    between atoms: _83  and  _84
REMARK   34  A    between atoms: _83  and  _86
REMARK   35  A    between atoms: _86  and  _87
REMARK   36  A    between atoms: _90  and  _92
REMARK   37  A    between atoms: _92  and  _93
REMARK   38  A    between atoms: _92  and  _95
REMARK   39  A    between atoms: _95  and  _96
REMARK   40  A    between atoms: _99  and  _101
REMARK   41  A    between atoms: _101  and  _102
REMARK   42  A    between atoms: _101  and  _104
REMARK   43  A    between atoms: _104  and  _105
REMARK   44  A    between atoms: _108  and  _110
REMARK   45  A    between atoms: _110  and  _111
REMARK   46  A    between atoms: _110  and  _113
REMARK   47  A    between atoms: _116  and  _118
REMARK   48  A    between atoms: _118  and  _119
REMARK   49  A    between atoms: _118  and  _121
REMARK   50  A    between atoms: _121  and  _122
REMARK   51  A    between atoms: _122  and  _123
REMARK   52  A    between atoms: _123  and  _124
REMARK   53  A    between atoms: _124  and  _125
REMARK   54  A    between atoms: _129  and  _131
REMARK   55  A    between atoms: _131  and  _132
REMARK   56  A    between atoms: _131  and  _134
REMARK   57  A    between atoms: _134  and  _135
REMARK   58  A    between atoms: _135  and  _136
REMARK   59  A    between atoms: _138  and  _140
REMARK   60  A    between atoms: _140  and  _141
REMARK   61  A    between atoms: _140  and  _143
REMARK   62  A    between atoms: _143  and  _144
REMARK   63  A    between atoms: _147  and  _149
REMARK   64  A    between atoms: _149  and  _150
REMARK   65  A    between atoms: _152  and  _154
REMARK   66  A    between atoms: _154  and  _155
REMARK   67  A    between atoms: _157  and  _159
REMARK   68  A    between atoms: _159  and  _160
REMARK   69  A    between atoms: _159  and  _162
REMARK   70  A    between atoms: _162  and  _163
REMARK   71  A    between atoms: _166  and  _168
REMARK   72  A    between atoms: _168  and  _169
REMARK   73  A    between atoms: _171  and  _173
REMARK   74  A    between atoms: _173  and  _174
REMARK   75  A    between atoms: _176  and  _178
REMARK   76  A    between atoms: _178  and  _179
REMARK   77  A    between atoms: _178  and  _181
REMARK   78  A    between atoms: _181  and  _182
REMARK   79  A    between atoms: _188  and  _190
REMARK   80  A    between atoms: _190  and  _191
REMARK   81  A    between atoms: _190  and  _193
REMARK   82  A    between atoms: _193  and  _194
REMARK   83  A    between atoms: _197  and  _199
REMARK   84  A    between atoms: _199  and  _200
REMARK   85  A    between atoms: _199  and  _202
REMARK   86  A    between atoms: _205  and  _207
REMARK   87  A    between atoms: _207  and  _208
REMARK   88  A    between atoms: _207  and  _210
REMARK   89  A    between atoms: _210  and  _211
REMARK   90  A    between atoms: _215  and  _216
REMARK   91  A    between atoms: _221  and  _223
REMARK   92  A    between atoms: _223  and  _224
REMARK   93  A    between atoms: _223  and  _226
REMARK   94  A    between atoms: _226  and  _227
REMARK   95  A    between atoms: _231  and  _232
REMARK   96  A    between atoms: _237  and  _239
REMARK   97  A    between atoms: _239  and  _240
REMARK   98  A    between atoms: _239  and  _242
REMARK   99  A    between atoms: _245  and  _247
REMARK  100  A    between atoms: _247  and  _248
REMARK  101  A    between atoms: _247  and  _250
REMARK  102  A    between atoms: _250  and  _251
REMARK  103  A    between atoms: _256  and  _258
REMARK  104  A    between atoms: _258  and  _259
REMARK  105  A    between atoms: _258  and  _261
REMARK  106  A    between atoms: _261  and  _262
REMARK  107  A    between atoms: _265  and  _267
REMARK  108  A    between atoms: _267  and  _268
REMARK  109  A    between atoms: _267  and  _270
REMARK  110  A    between atoms: _270  and  _271
REMARK  111  A    between atoms: _274  and  _276
REMARK  112  A    between atoms: _276  and  _277
REMARK  113  A    between atoms: _279  and  _281
REMARK  114  A    between atoms: _281  and  _282
REMARK  115  A    between atoms: _281  and  _284
REMARK  116  A    between atoms: _284  and  _285
REMARK  117  A    between atoms: _285  and  _286
REMARK  118  A    between atoms: _286  and  _287
REMARK  119  A    between atoms: _296  and  _298
REMARK  120  A    between atoms: _298  and  _299
REMARK  121  A    between atoms: _298  and  _301
REMARK  122  A    between atoms: _301  and  _302
REMARK  123  A    between atoms: _302  and  _303
REMARK  124  A    between atoms: _303  and  _304
REMARK  125  A    between atoms: _314  and  _315
REMARK  126  A    between atoms: _320  and  _322
REMARK  127  A    between atoms: _322  and  _323
REMARK  128  A    between atoms: _322  and  _325
REMARK  129  A    between atoms: _325  and  _326
REMARK  130  A    between atoms: _329  and  _331
REMARK  131  A    between atoms: _331  and  _332
REMARK  132  A    between atoms: _331  and  _334
REMARK  133  A    between atoms: _334  and  _335
REMARK  134  A    between atoms: _335  and  _336
REMARK  135  A    between atoms: _339  and  _341
REMARK  136  A    between atoms: _341  and  _342
REMARK  137  A    between atoms: _341  and  _344
REMARK  138  A    between atoms: _344  and  _345
REMARK  139  A    between atoms: _348  and  _350
REMARK  140  A    between atoms: _350  and  _351
REMARK  141  A    between atoms: _350  and  _353
REMARK  142  A    between atoms: _353  and  _354
REMARK  143  A    between atoms: _357  and  _359
REMARK  144  A    between atoms: _359  and  _360
REMARK  145  A    between atoms: _359  and  _362
REMARK  146  A    between atoms: _362  and  _363
REMARK  147  A    between atoms: _366  and  _368
REMARK  148  A    between atoms: _368  and  _369
REMARK  149  A    between atoms: _368  and  _371
REMARK  150  A    between atoms: _371  and  _372
REMARK  151  A    between atoms: _375  and  _377
REMARK  152  A    between atoms: _377  and  _378
REMARK  153  A    between atoms: _380  and  _382
REMARK  154  A    between atoms: _382  and  _383
REMARK  155  A    between atoms: _386  and  _388
REMARK  156  A    between atoms: _388  and  _389
REMARK  157  A    between atoms: _388  and  _391
REMARK  158  A    between atoms: _391  and  _392
REMARK  159  A    between atoms: _395  and  _397
REMARK  160  A    between atoms: _397  and  _398
REMARK  161  A    between atoms: _397  and  _400
REMARK  162  A    between atoms: _400  and  _401
REMARK  163  A    between atoms: _404  and  _406
REMARK  164  A    between atoms: _406  and  _407
REMARK  165  A    between atoms: _406  and  _409
REMARK  166  A    between atoms: _409  and  _410
REMARK  167  A    between atoms: _413  and  _415
REMARK  168  A    between atoms: _415  and  _416
REMARK  169  A    between atoms: _415  and  _418
REMARK  170  A    between atoms: _421  and  _423
REMARK  171  A    between atoms: _423  and  _424
REMARK  172  A    between atoms: _423  and  _426
REMARK  173  A    between atoms: _426  and  _427
REMARK  174  A    between atoms: _427  and  _428
REMARK  175  A    between atoms: _428  and  _429
REMARK  176  A    between atoms: _429  and  _430
REMARK  177  A    between atoms: _434  and  _436
REMARK  178  A    between atoms: _436  and  _437
REMARK  179  A    between atoms: _436  and  _439
REMARK  180  A    between atoms: _439  and  _440
REMARK  181  A    between atoms: _440  and  _441
REMARK  182  A    between atoms: _443  and  _445
REMARK  183  A    between atoms: _445  and  _446
REMARK  184  A    between atoms: _445  and  _448
REMARK  185  A    between atoms: _448  and  _449
REMARK  186  A    between atoms: _452  and  _454
REMARK  187  A    between atoms: _454  and  _455
REMARK  188  A    between atoms: _457  and  _459
REMARK  189  A    between atoms: _459  and  _460
REMARK  190  A    between atoms: _462  and  _464
REMARK  191  A    between atoms: _464  and  _465
REMARK  192  A    between atoms: _464  and  _467
REMARK  193  A    between atoms: _467  and  _468
REMARK  194  A    between atoms: _471  and  _473
REMARK  195  A    between atoms: _473  and  _474
REMARK  196  A    between atoms: _476  and  _478
REMARK  197  A    between atoms: _478  and  _479
REMARK  198  A    between atoms: _481  and  _483
REMARK  199  A    between atoms: _483  and  _484
REMARK  200  A    between atoms: _483  and  _486
REMARK  201  A    between atoms: _486  and  _487
REMARK  202  A    between atoms: _493  and  _495
REMARK  203  A    between atoms: _495  and  _496
REMARK  204  A    between atoms: _495  and  _498
REMARK  205  A    between atoms: _498  and  _499
REMARK  206  A    between atoms: _502  and  _504
REMARK  207  A    between atoms: _504  and  _505
REMARK  208  A    between atoms: _504  and  _507
REMARK  209  A    between atoms: _510  and  _512
REMARK  210  A    between atoms: _512  and  _513
REMARK  211  A    between atoms: _512  and  _515
REMARK  212  A    between atoms: _515  and  _516
REMARK  213  A    between atoms: _519  and  _521
REMARK  214  A    between atoms: _521  and  _522
REMARK  215  A    between atoms: _521  and  _524
REMARK  216  A    between atoms: _524  and  _525
REMARK  217  A    between atoms: _529  and  _530
REMARK  218  A    between atoms: _535  and  _537
REMARK  219  A    between atoms: _537  and  _538
REMARK  220  A    between atoms: _537  and  _540
REMARK  221  A    between atoms: _543  and  _545
REMARK  222  A    between atoms: _545  and  _546
REMARK  223  A    between atoms: _545  and  _548
REMARK  224  A    between atoms: _548  and  _549
REMARK  225  A    between atoms: _554  and  _556
REMARK  226  A    between atoms: _556  and  _557
REMARK  227  A    between atoms: _556  and  _559
REMARK  228  A    between atoms: _559  and  _560
REMARK  229  A    between atoms: _563  and  _565
REMARK  230  A    between atoms: _565  and  _566
REMARK  231  A    between atoms: _565  and  _568
REMARK  232  A    between atoms: _568  and  _569
REMARK  233  A    between atoms: _572  and  _574
REMARK  234  A    between atoms: _574  and  _575
REMARK  235  A    between atoms: _577  and  _579
REMARK  236  A    between atoms: _579  and  _580
REMARK  237  A    between atoms: _579  and  _582
REMARK  238  A    between atoms: _582  and  _583
REMARK  239  A    between atoms: _583  and  _584
REMARK  240  A    between atoms: _584  and  _585
REMARK                            x       y       z     vdW  Elec       q    Type
REMARK                         _______ _______ _______ _____ _____    ______ ____
ROOT
ATOM      1  CA  ILE A   5      13.170   1.695  16.643  0.00  0.00    +0.149 C 
ENDROOT
BRANCH   1   3
ATOM      2  C   ASN A   4      14.384   2.986  14.997  0.00  0.00    +0.241 C 
ATOM      3  N   ILE A   5      14.227   1.869  15.650  0.00  0.00    -0.297 N 
ATOM      4  H   ILE A   5      14.874   1.078  15.458  0.00  0.00    +0.150 HD
ATOM      5  O   ASN A   4      13.718   3.974  15.234  0.00  0.00    -0.273 OA
BRANCH   2   6
ATOM      6  CA  ASN A   4      15.461   2.942  13.888  0.00  0.00    +0.158 C 
BRANCH   6   8
ATOM      7  C   VAL A   3      14.108   2.684  11.955  0.00  0.00    +0.241 C 
ATOM      8  N   ASN A   4      14.965   3.465  12.606  0.00  0.00    -0.297 N 
ATOM      9  H   ASN A   4      15.266   4.388  12.232  0.00  0.00    +0.150 HD
ATOM     10  O   VAL A   3      13.942   1.528  12.310  0.00  0.00    -0.273 OA
BRANCH   7  11
ATOM     11  CA  VAL A   3      13.342   3.283  10.728  0.00  0.00    +0.149 C 
BRANCH  11  13
ATOM     12  C   PRO A   2      13.374   2.653   8.387  0.00  0.00    +0.241 C 
ATOM     13  N   VAL A   3      13.086   2.316   9.644  0.00  0.00    -0.297 N 
ATOM     14  H   VAL A   3      12.685   1.381   9.858  0.00  0.00    +0.150 HD
ATOM     15  O   PRO A   2      13.851   3.735   8.092  0.00  0.00    -0.273 OA
BRANCH  12  22
ATOM     16  C   THR A   1      14.288  -0.278   8.263  0.00  0.00    +0.244 C 
ATOM     17  O   THR A   1      15.315   0.370   8.118  0.00  0.00    -0.273 OA
ATOM     18  N   PRO A   2      13.118   0.201   7.862  0.00  0.00    -0.272 N 
ATOM     19  CD  PRO A   2      11.831  -0.484   7.798  0.00  0.00    +0.094 C 
ATOM     20  CG  PRO A   2      10.855   0.658   7.538  0.00  0.00    +0.024 C 
ATOM     21  CB  PRO A   2      11.668   1.716   6.800  0.00  0.00    +0.031 C 
ATOM     22  CA  PRO A   2      13.088   1.584   7.349  0.00  0.00    +0.152 C 
BRANCH  16  23
ATOM     23  CA  THR A   1      14.290  -1.663   8.917  0.00  0.00    +0.172 C 
BRANCH  23  24
ATOM     24  N   THR A   1      15.399  -2.582   8.519  0.00  0.00    -0.236 NA
ATOM     25  H   THR A   1      16.131  -2.855   9.206  0.00  0.00    +0.142 HD
ENDBRANCH  23  24
BRANCH  23  26
ATOM     26  CB  THR A   1      14.232  -1.478  10.476  0.00  0.00    +0.135 C 
ATOM     27  CG2 THR A   1      15.476  -0.890  11.111  0.00  0.00    +0.034 C 
BRANCH  26  28
ATOM     28  OG1 THR A   1      13.119  -0.644  10.833  0.00  0.00    -0.383 OA
ATOM     29  HG1 THR A   1      13.092  -0.534  11.817  0.00  0.00    +0.210 HD
ENDBRANCH  26  28
ENDBRANCH  23  26
ENDBRANCH  16  23
ENDBRANCH  12  22
ENDBRANCH  11  13
BRANCH  11  30
ATOM     30  CB  VAL A   3      11.943   3.874  11.063  0.00  0.00    +0.027 C 
ATOM     31  CG2 VAL A   3      11.989   4.966  12.092  0.00  0.00    +0.002 C 
ATOM     32  CG1 VAL A   3      10.968   2.821  11.508  0.00  0.00    +0.002 C 
ENDBRANCH  11  30
ENDBRANCH   7  11
ENDBRANCH   6   8
BRANCH   6  33
ATOM     33  CB  ASN A   4      16.665   3.746  14.389  0.00  0.00    +0.114 C 
BRANCH  33  34
ATOM     34  CG  ASN A   4      17.825   3.602  13.461  0.00  0.00    +0.222 C 
ATOM     35  OD1 ASN A   4      18.300   2.536  13.148  0.00  0.00    -0.275 OA
ATOM     36  ND2 ASN A   4      18.288   4.725  12.998  0.00  0.00    -0.329 N 
ATOM     37 HD21 ASN A   4      17.855   5.625  13.288  0.00  0.00    +0.145 HD
ATOM     38 HD22 ASN A   4      19.091   4.723  12.337  0.00  0.00    +0.145 HD
ENDBRANCH  33  34
ENDBRANCH   6  33
ENDBRANCH   2   6
ENDBRANCH   1   3
BRANCH   1  39
ATOM     39  C   ILE A   5      13.735   1.378  18.016  0.00  0.00    +0.241 C 
ATOM     40  N   ILE A   6      13.439   2.312  18.925  0.00  0.00    -0.297 N 
ATOM     41  H   ILE A   6      13.033   3.229  18.648  0.00  0.00    +0.150 HD
ATOM     42  O   ILE A   5      14.373   0.352  18.247  0.00  0.00    -0.273 OA
BRANCH  40  43
ATOM     43  CA  ILE A   6      13.710   1.991  20.321  0.00  0.00    +0.149 C 
BRANCH  43  44
ATOM     44  C   ILE A   6      12.485   1.401  21.032  0.00  0.00    +0.241 C 
ATOM     45  N   GLY A   7      12.633   0.133  21.338  0.00  0.00    -0.295 N 
ATOM     46  H   GLY A   7      13.526  -0.345  21.099  0.00  0.00    +0.150 HD
ATOM     47  O   ILE A   6      11.479   2.034  21.277  0.00  0.00    -0.273 OA
BRANCH  45  48
ATOM     48  CA  GLY A   7      11.580  -0.623  22.003  0.00  0.00    +0.176 C 
BRANCH  48  49
ATOM     49  C   GLY A   7      11.633  -0.702  23.536  0.00  0.00    +0.243 C 
ATOM     50  O   GLY A   7      12.490  -0.143  24.222  0.00  0.00    -0.273 OA
ATOM     51  N   ARG A   8      10.668  -1.444  24.072  0.00  0.00    -0.298 N 
ATOM     52  H   ARG A   8      10.029  -1.994  23.464  0.00  0.00    +0.150 HD
BRANCH  51  53
ATOM     53  CA  ARG A   8      10.514  -1.478  25.543  0.00  0.00    +0.137 C 
BRANCH  53  54
ATOM     54  C   ARG A   8      11.672  -2.013  26.381  0.00  0.00    +0.227 C 
ATOM     55  O   ARG A   8      11.945  -1.603  27.495  0.00  0.00    -0.286 OA
ENDBRANCH  53  54
BRANCH  53  56
ATOM     56  CB  ARG A   8       9.276  -2.272  25.928  0.00  0.00    +0.031 C 
BRANCH  56  57
ATOM     57  CG  ARG A   8       7.922  -1.692  25.496  0.00  0.00    +0.045 C 
BRANCH  57  58
ATOM     58  CD  ARG A   8       6.762  -2.456  26.179  0.00  0.00    +0.174 C 
BRANCH  58  59
ATOM     59  NE  ARG A   8       6.712  -3.866  25.771  0.00  0.00    -0.265 N 
ATOM     60  CZ  ARG A   8       7.219  -4.900  26.464  0.00  0.00    +0.342 C 
ATOM     61  NH2 ARG A   8       7.787  -4.702  27.651  0.00  0.00    -0.292 N 
ATOM     62 HH21 ARG A   8       8.177  -5.507  28.182  0.00  0.00    +0.255 HD
ATOM     63 HH22 ARG A   8       7.841  -3.742  28.048  0.00  0.00    +0.255 HD
ATOM     64  NH1 ARG A   8       7.172  -6.136  25.956  0.00  0.00    -0.292 N 
ATOM     65 HH11 ARG A   8       7.565  -6.935  26.494  0.00  0.00    +0.255 HD
ATOM     66 HH12 ARG A   8       6.743  -6.299  25.023  0.00  0.00    +0.255 HD
ATOM     67  HE  ARG A   8       6.244  -4.083  24.868  0.00  0.00    +0.259 HD
ENDBRANCH  58  59
ENDBRANCH  57  58
ENDBRANCH  56  57
ENDBRANCH  53  56
ENDBRANCH  51  53
ENDBRANCH  48  49
ENDBRANCH  45  48
ENDBRANCH  43  44
BRANCH  43  68
ATOM     68  CB  ILE A   6      14.254   3.232  21.061  0.00  0.00    +0.027 C 
ATOM     69  CG2 ILE A   6      14.786   2.841  22.449  0.00  0.00    +0.002 C 
BRANCH  68  70
ATOM     70  CG1 ILE A   6      15.359   3.956  20.301  0.00  0.00    +0.002 C 
ATOM     71  CD1 ILE A   6      16.634   3.140  20.097  0.00  0.00    +0.000 C 
ENDBRANCH  68  70
ENDBRANCH  43  68
ENDBRANCH  40  43
ENDBRANCH   1  39
BRANCH   1  72
ATOM     72  CB  ILE A   5      12.260   0.558  16.203  0.00  0.00    +0.027 C 
ATOM     73  CG2 ILE A   5      11.249   0.144  17.280  0.00  0.00    +0.002 C 
BRANCH  72  74
ATOM     74  CG1 ILE A   5      11.514   0.973  14.942  0.00  0.00    +0.002 C 
ATOM     75  CD1 ILE A   5      10.833  -0.214  14.250  0.00  0.00    +0.000 C 
ENDBRANCH  72  74
ENDBRANCH   1  72
TORSDOF 28
REMARK  Name = ../refined-set-2016/1hvk/1hvk_pocket.pdb
REMARK  240 active torsions:
REMARK  status: ('A' for Active; 'I' for Inactive)
REMARK    1  A    between atoms: _1  and  _3
REMARK    2  A    between atoms: _3  and  _4
REMARK    3  A    between atoms: _3  and  _6
REMARK    4  A    between atoms: _6  and  _7
REMARK    5  A    between atoms: _7  and  _8
REMARK    6  A    between atoms: _8  and  _9
REMARK    7  A    between atoms: _19  and  _20
REMARK    8  A    between atoms: _25  and  _27
REMARK    9  A    between atoms: _27  and  _28
REMARK   10  A    between atoms: _27  and  _30
REMARK   11  A    between atoms: _30  and  _31
REMARK   12  A    between atoms: _34  and  _36
REMARK   13  A    between atoms: _36  and  _37
REMARK   14  A    between atoms: _36  and  _39
REMARK   15  A    between atoms: _39  and  _40
REMARK   16  A    between atoms: _43  and  _45
REMARK   17  A    between atoms: _45  and  _46
REMARK   18  A    between atoms: _45  and  _48
REMARK   19  A    between atoms: _48  and  _49
REMARK   20  A    between atoms: _52  and  _54
REMARK   21  A    between atoms: _54  and  _55
REMARK   22  A    between atoms: _54  and  _57
REMARK   23  A    between atoms: _57  and  _58
REMARK   24  A    between atoms: _61  and  _63
REMARK   25  A    between atoms: _63  and  _64
REMARK   26  A    between atoms: _63  and  _66
REMARK   27  A    between atoms: _66  and  _67
REMARK   28  A    between atoms: _70  and  _72
REMARK   29  A    between atoms: _72  and  _73
REMARK   30  A    between atoms: _75  and  _77
REMARK   31  A    between atoms: _77  and  _78
REMARK   32  A    between atoms: _81  and  _83
REMARK   33  A    between atoms: _83  and  _84
REMARK   34  A    between atoms: _83  and  _86
REMARK   35  A    between atoms: _86  and  _87
REMARK   36  A    between atoms: _90  and  _92
REMARK   37  A    between atoms: _92  and  _93
REMARK   38  A    between atoms: _92  and  _95
REMARK   39  A    between atoms: _95  and  _96
REMARK   40  A    between atoms: _99  and  _101
REMARK   41  A    between atoms: _101  and  _102
REMARK   42  A    between atoms: _101  and  _104
REMARK   43  A    between atoms: _104  and  _105
REMARK   44  A    between atoms: _108  and  _110
REMARK   45  A    between atoms: _110  and  _111
REMARK   46  A    between atoms: _110  and  _113
REMARK   47  A    between atoms: _116  and  _118
REMARK   48  A    between atoms: _118  and  _119
REMARK   49  A    between atoms: _118  and  _121
REMARK   50  A    between atoms: _121  and  _122
REMARK   51  A    between atoms: _122  and  _123
REMARK   52  A    between atoms: _123  and  _124
REMARK   53  A    between atoms: _124  and  _125
REMARK   54  A    between atoms: _129  and  _131
REMARK   55  A    between atoms: _131  and  _132
REMARK   56  A    between atoms: _131  and  _134
REMARK   57  A    between atoms: _134  and  _135
REMARK   58  A    between atoms: _135  and  _136
REMARK   59  A    between atoms: _138  and  _140
REMARK   60  A    between atoms: _140  and  _141
REMARK   61  A    between atoms: _140  and  _143
REMARK   62  A    between atoms: _143  and  _144
REMARK   63  A    between atoms: _147  and  _149
REMARK   64  A    between atoms: _149  and  _150
REMARK   65  A    between atoms: _152  and  _154
REMARK   66  A    between atoms: _154  and  _155
REMARK   67  A    between atoms: _157  and  _159
REMARK   68  A    between atoms: _159  and  _160
REMARK   69  A    between atoms: _159  and  _162
REMARK   70  A    between atoms: _162  and  _163
REMARK   71  A    between atoms: _166  and  _168
REMARK   72  A    between atoms: _168  and  _169
REMARK   73  A    between atoms: _171  and  _173
REMARK   74  A    between atoms: _173  and  _174
REMARK   75  A    between atoms: _176  and  _178
REMARK   76  A    between atoms: _178  and  _179
REMARK   77  A    between atoms: _178  and  _181
REMARK   78  A    between atoms: _181  and  _182
REMARK   79  A    between atoms: _188  and  _190
REMARK   80  A    between atoms: _190  and  _191
REMARK   81  A    between atoms: _190  and  _193
REMARK   82  A    between atoms: _193  and  _194
REMARK   83  A    between atoms: _197  and  _199
REMARK   84  A    between atoms: _199  and  _200
REMARK   85  A    between atoms: _199  and  _202
REMARK   86  A    between atoms: _205  and  _207
REMARK   87  A    between atoms: _207  and  _208
REMARK   88  A    between atoms: _207  and  _210
REMARK   89  A    between atoms: _210  and  _211
REMARK   90  A    between atoms: _215  and  _216
REMARK   91  A    between atoms: _221  and  _223
REMARK   92  A    between atoms: _223  and  _224
REMARK   93  A    between atoms: _223  and  _226
REMARK   94  A    between atoms: _226  and  _227
REMARK   95  A    between atoms: _231  and  _232
REMARK   96  A    between atoms: _237  and  _239
REMARK   97  A    between atoms: _239  and  _240
REMARK   98  A    between atoms: _239  and  _242
REMARK   99  A    between atoms: _245  and  _247
REMARK  100  A    between atoms: _247  and  _248
REMARK  101  A    between atoms: _247  and  _250
REMARK  102  A    between atoms: _250  and  _251
REMARK  103  A    between atoms: _256  and  _258
REMARK  104  A    between atoms: _258  and  _259
REMARK  105  A    between atoms: _258  and  _261
REMARK  106  A    between atoms: _261  and  _262
REMARK  107  A    between atoms: _265  and  _267
REMARK  108  A    between atoms: _267  and  _268
REMARK  109  A    between atoms: _267  and  _270
REMARK  110  A    between atoms: _270  and  _271
REMARK  111  A    between atoms: _274  and  _276
REMARK  112  A    between atoms: _276  and  _277
REMARK  113  A    between atoms: _279  and  _281
REMARK  114  A    between atoms: _281  and  _282
REMARK  115  A    between atoms: _281  and  _284
REMARK  116  A    between atoms: _284  and  _285
REMARK  117  A    between atoms: _285  and  _286
REMARK  118  A    between atoms: _286  and  _287
REMARK  119  A    between atoms: _296  and  _298
REMARK  120  A    between atoms: _298  and  _299
REMARK  121  A    between atoms: _298  and  _301
REMARK  122  A    between atoms: _301  and  _302
REMARK  123  A    between atoms: _302  and  _303
REMARK  124  A    between atoms: _303  and  _304
REMARK  125  A    between atoms: _314  and  _315
REMARK  126  A    between atoms: _320  and  _322
REMARK  127  A    between atoms: _322  and  _323
REMARK  128  A    between atoms: _322  and  _325
REMARK  129  A    between atoms: _325  and  _326
REMARK  130  A    between atoms: _329  and  _331
REMARK  131  A    between atoms: _331  and  _332
REMARK  132  A    between atoms: _331  and  _334
REMARK  133  A    between atoms: _334  and  _335
REMARK  134  A    between atoms: _335  and  _336
REMARK  135  A    between atoms: _339  and  _341
REMARK  136  A    between atoms: _341  and  _342
REMARK  137  A    between atoms: _341  and  _344
REMARK  138  A    between atoms: _344  and  _345
REMARK  139  A    between atoms: _348  and  _350
REMARK  140  A    between atoms: _350  and  _351
REMARK  141  A    between atoms: _350  and  _353
REMARK  142  A    between atoms: _353  and  _354
REMARK  143  A    between atoms: _357  and  _359
REMARK  144  A    between atoms: _359  and  _360
REMARK  145  A    between atoms: _359  and  _362
REMARK  146  A    between atoms: _362  and  _363
REMARK  147  A    between atoms: _366  and  _368
REMARK  148  A    between atoms: _368  and  _369
REMARK  149  A    between atoms: _368  and  _371
REMARK  150  A    between atoms: _371  and  _372
REMARK  151  A    between atoms: _375  and  _377
REMARK  152  A    between atoms: _377  and  _378
REMARK  153  A    between atoms: _380  and  _382
REMARK  154  A    between atoms: _382  and  _383
REMARK  155  A    between atoms: _386  and  _388
REMARK  156  A    between atoms: _388  and  _389
REMARK  157  A    between atoms: _388  and  _391
REMARK  158  A    between atoms: _391  and  _392
REMARK  159  A    between atoms: _395  and  _397
REMARK  160  A    between atoms: _397  and  _398
REMARK  161  A    between atoms: _397  and  _400
REMARK  162  A    between atoms: _400  and  _401
REMARK  163  A    between atoms: _404  and  _406
REMARK  164  A    between atoms: _406  and  _407
REMARK  165  A    between atoms: _406  and  _409
REMARK  166  A    between atoms: _409  and  _410
REMARK  167  A    between atoms: _413  and  _415
REMARK  168  A    between atoms: _415  and  _416
REMARK  169  A    between atoms: _415  and  _418
REMARK  170  A    between atoms: _421  and  _423
REMARK  171  A    between atoms: _423  and  _424
REMARK  172  A    between atoms: _423  and  _426
REMARK  173  A    between atoms: _426  and  _427
REMARK  174  A    between atoms: _427  and  _428
REMARK  175  A    between atoms: _428  and  _429
REMARK  176  A    between atoms: _429  and  _430
REMARK  177  A    between atoms: _434  and  _436
REMARK  178  A    between atoms: _436  and  _437
REMARK  179  A    between atoms: _436  and  _439
REMARK  180  A    between atoms: _439  and  _440
REMARK  181  A    between atoms: _440  and  _441
REMARK  182  A    between atoms: _443  and  _445
REMARK  183  A    between atoms: _445  and  _446
REMARK  184  A    between atoms: _445  and  _448
REMARK  185  A    between atoms: _448  and  _449
REMARK  186  A    between atoms: _452  and  _454
REMARK  187  A    between atoms: _454  and  _455
REMARK  188  A    between atoms: _457  and  _459
REMARK  189  A    between atoms: _459  and  _460
REMARK  190  A    between atoms: _462  and  _464
REMARK  191  A    between atoms: _464  and  _465
REMARK  192  A    between atoms: _464  and  _467
REMARK  193  A    between atoms: _467  and  _468
REMARK  194  A    between atoms: _471  and  _473
REMARK  195  A    between atoms: _473  and  _474
REMARK  196  A    between atoms: _476  and  _478
REMARK  197  A    between atoms: _478  and  _479
REMARK  198  A    between atoms: _481  and  _483
REMARK  199  A    between atoms: _483  and  _484
REMARK  200  A    between atoms: _483  and  _486
REMARK  201  A    between atoms: _486  and  _487
REMARK  202  A    between atoms: _493  and  _495
REMARK  203  A    between atoms: _495  and  _496
REMARK  204  A    between atoms: _495  and  _498
REMARK  205  A    between atoms: _498  and  _499
REMARK  206  A    between atoms: _502  and  _504
REMARK  207  A    between atoms: _504  and  _505
REMARK  208  A    between atoms: _504  and  _507
REMARK  209  A    between atoms: _510  and  _512
REMARK  210  A    between atoms: _512  and  _513
REMARK  211  A    between atoms: _512  and  _515
REMARK  212  A    between atoms: _515  and  _516
REMARK  213  A    between atoms: _519  and  _521
REMARK  214  A    between atoms: _521  and  _522
REMARK  215  A    between atoms: _521  and  _524
REMARK  216  A    between atoms: _524  and  _525
REMARK  217  A    between atoms: _529  and  _530
REMARK  218  A    between atoms: _535  and  _537
REMARK  219  A    between atoms: _537  and  _538
REMARK  220  A    between atoms: _537  and  _540
REMARK  221  A    between atoms: _543  and  _545
REMARK  222  A    between atoms: _545  and  _546
REMARK  223  A    between atoms: _545  and  _548
REMARK  224  A    between atoms: _548  and  _549
REMARK  225  A    between atoms: _554  and  _556
REMARK  226  A    between atoms: _556  and  _557
REMARK  227  A    between atoms: _556  and  _559
REMARK  228  A    between atoms: _559  and  _560
REMARK  229  A    between atoms: _563  and  _565
REMARK  230  A    between atoms: _565  and  _566
REMARK  231  A    between atoms: _565  and  _568
REMARK  232  A    between atoms: _568  and  _569
REMARK  233  A    between atoms: _572  and  _574
REMARK  234  A    between atoms: _574  and  _575
REMARK  235  A    between atoms: _577  and  _579
REMARK  236  A    between atoms: _579  and  _580
REMARK  237  A    between atoms: _579  and  _582
REMARK  238  A    between atoms: _582  and  _583
REMARK  239  A    between atoms: _583  and  _584
REMARK  240  A    between atoms: _584  and  _585
REMARK                            x       y       z     vdW  Elec       q    Type
REMARK                         _______ _______ _______ _____ _____    ______ ____
ROOT
ATOM      1  O   HOH     1       5.179  -3.100  12.216  0.00  0.00    +0.000 OA
ENDROOT
TORSDOF 0
