REMARK  Name = ../refined-set-2016/2amt/2amt_pocket.pdb
REMARK  200 active torsions:
REMARK  status: ('A' for Active; 'I' for Inactive)
REMARK    1  A    between atoms: _1  and  _3
REMARK    2  A    between atoms: _3  and  _4
REMARK    3  A    between atoms: _3  and  _6
REMARK    4  A    between atoms: _6  and  _7
REMARK    5  A    between atoms: _13  and  _15
REMARK    6  A    between atoms: _24  and  _27
REMARK    7  A    between atoms: _32  and  _33
REMARK    8  A    between atoms: _41  and  _43
REMARK    9  A    between atoms: _43  and  _44
REMARK   10  A    between atoms: _47  and  _49
REMARK   11  A    between atoms: _49  and  _50
REMARK   12  A    between atoms: _49  and  _52
REMARK   13  A    between atoms: _52  and  _53
REMARK   14  A    between atoms: _56  and  _58
REMARK   15  A    between atoms: _58  and  _59
REMARK   16  A    between atoms: _62  and  _64
REMARK   17  A    between atoms: _64  and  _65
REMARK   18  A    between atoms: _64  and  _67
REMARK   19  A    between atoms: _67  and  _68
REMARK   20  A    between atoms: _73  and  _75
REMARK   21  A    between atoms: _75  and  _76
REMARK   22  A    between atoms: _75  and  _78
REMARK   23  A    between atoms: _78  and  _79
REMARK   24  A    between atoms: _81  and  _83
REMARK   25  A    between atoms: _83  and  _84
REMARK   26  A    between atoms: _83  and  _86
REMARK   27  A    between atoms: _86  and  _87
REMARK   28  A    between atoms: _90  and  _92
REMARK   29  A    between atoms: _92  and  _93
REMARK   30  A    between atoms: _95  and  _97
REMARK   31  A    between atoms: _97  and  _98
REMARK   32  A    between atoms: _97  and  _100
REMARK   33  A    between atoms: _100  and  _101
REMARK   34  A    between atoms: _104  and  _106
REMARK   35  A    between atoms: _106  and  _107
REMARK   36  A    between atoms: _106  and  _109
REMARK   37  A    between atoms: _112  and  _114
REMARK   38  A    between atoms: _114  and  _115
REMARK   39  A    between atoms: _114  and  _117
REMARK   40  A    between atoms: _117  and  _118
REMARK   41  A    between atoms: _119  and  ZN_502
REMARK   42  A    between atoms: _123  and  _125
REMARK   43  A    between atoms: _125  and  _126
REMARK   44  A    between atoms: _129  and  _131
REMARK   45  A    between atoms: _131  and  _132
REMARK   46  A    between atoms: _131  and  _134
REMARK   47  A    between atoms: _134  and  _135
REMARK   48  A    between atoms: _138  and  _140
REMARK   49  A    between atoms: _140  and  _141
REMARK   50  A    between atoms: _143  and  _145
REMARK   51  A    between atoms: _145  and  _146
REMARK   52  A    between atoms: _145  and  _148
REMARK   53  A    between atoms: _148  and  _149
REMARK   54  A    between atoms: _152  and  _154
REMARK   55  A    between atoms: _154  and  _155
REMARK   56  A    between atoms: _154  and  _157
REMARK   57  A    between atoms: _157  and  _158
REMARK   58  A    between atoms: _161  and  _163
REMARK   59  A    between atoms: _163  and  _164
REMARK   60  A    between atoms: _166  and  _168
REMARK   61  A    between atoms: _168  and  _169
REMARK   62  A    between atoms: _168  and  _171
REMARK   63  A    between atoms: _171  and  _172
REMARK   64  A    between atoms: _172  and  _173
REMARK   65  A    between atoms: _173  and  _174
REMARK   66  A    between atoms: _174  and  _175
REMARK   67  A    between atoms: _179  and  _181
REMARK   68  A    between atoms: _181  and  _182
REMARK   69  A    between atoms: _181  and  _184
REMARK   70  A    between atoms: _184  and  _185
REMARK   71  A    between atoms: _188  and  _190
REMARK   72  A    between atoms: _190  and  _191
REMARK   73  A    between atoms: _190  and  _193
REMARK   74  A    between atoms: _193  and  _194
REMARK   75  A    between atoms: _201  and  _202
REMARK   76  A    between atoms: _207  and  _209
REMARK   77  A    between atoms: _209  and  _210
REMARK   78  A    between atoms: _209  and  _212
REMARK   79  A    between atoms: _212  and  _213
REMARK   80  A    between atoms: _216  and  _218
REMARK   81  A    between atoms: _218  and  _219
REMARK   82  A    between atoms: _218  and  _221
REMARK   83  A    between atoms: _221  and  _222
REMARK   84  A    between atoms: _225  and  _227
REMARK   85  A    between atoms: _227  and  _228
REMARK   86  A    between atoms: _227  and  _230
REMARK   87  A    between atoms: _230  and  _231
REMARK   88  A    between atoms: _235  and  _236
REMARK   89  A    between atoms: _241  and  _243
REMARK   90  A    between atoms: _243  and  _244
REMARK   91  A    between atoms: _247  and  _249
REMARK   92  A    between atoms: _249  and  _250
REMARK   93  A    between atoms: _249  and  _252
REMARK   94  A    between atoms: _252  and  _253
REMARK   95  A    between atoms: _259  and  _261
REMARK   96  A    between atoms: _261  and  _262
REMARK   97  A    between atoms: _261  and  _264
REMARK   98  A    between atoms: _264  and  _265
REMARK   99  A    between atoms: _265  and  _266
REMARK  100  A    between atoms: _266  and  _267
REMARK  101  A    between atoms: _267  and  _268
REMARK  102  A    between atoms: _272  and  _274
REMARK  103  A    between atoms: _274  and  _275
REMARK  104  A    between atoms: _277  and  _279
REMARK  105  A    between atoms: _279  and  _280
REMARK  106  A    between atoms: _283  and  _285
REMARK  107  A    between atoms: _285  and  _286
REMARK  108  A    between atoms: _285  and  _288
REMARK  109  A    between atoms: _288  and  _289
REMARK  110  A    between atoms: _292  and  _294
REMARK  111  A    between atoms: _294  and  _295
REMARK  112  A    between atoms: _294  and  _297
REMARK  113  A    between atoms: _297  and  _298
REMARK  114  A    between atoms: _300  and  _302
REMARK  115  A    between atoms: _302  and  _303
REMARK  116  A    between atoms: _302  and  _305
REMARK  117  A    between atoms: _305  and  _306
REMARK  118  A    between atoms: _309  and  _311
REMARK  119  A    between atoms: _311  and  _312
REMARK  120  A    between atoms: _311  and  _314
REMARK  121  A    between atoms: _314  and  _315
REMARK  122  A    between atoms: _318  and  _320
REMARK  123  A    between atoms: _320  and  _321
REMARK  124  A    between atoms: _320  and  _323
REMARK  125  A    between atoms: _323  and  _324
REMARK  126  A    between atoms: _327  and  _329
REMARK  127  A    between atoms: _329  and  _330
REMARK  128  A    between atoms: _333  and  _335
REMARK  129  A    between atoms: _335  and  _336
REMARK  130  A    between atoms: _335  and  _338
REMARK  131  A    between atoms: _338  and  _339
REMARK  132  A    between atoms: _339  and  _340
REMARK  133  A    between atoms: _345  and  _347
REMARK  134  A    between atoms: _347  and  _348
REMARK  135  A    between atoms: _352  and  _353
REMARK  136  A    between atoms: _358  and  _360
REMARK  137  A    between atoms: _360  and  _361
REMARK  138  A    between atoms: _360  and  _363
REMARK  139  A    between atoms: _363  and  _364
REMARK  140  A    between atoms: _364  and  _365
REMARK  141  A    between atoms: _365  and  _366
REMARK  142  A    between atoms: _366  and  _367
REMARK  143  A    between atoms: _371  and  _373
REMARK  144  A    between atoms: _373  and  _374
REMARK  145  A    between atoms: _373  and  _376
REMARK  146  A    between atoms: _376  and  _377
REMARK  147  A    between atoms: _377  and  _378
REMARK  148  A    between atoms: _380  and  _382
REMARK  149  A    between atoms: _382  and  _383
REMARK  150  A    between atoms: _382  and  _385
REMARK  151  A    between atoms: _385  and  _386
REMARK  152  A    between atoms: _390  and  _391
REMARK  153  A    between atoms: _396  and  _398
REMARK  154  A    between atoms: _398  and  _399
REMARK  155  A    between atoms: _398  and  _401
REMARK  156  A    between atoms: _401  and  _402
REMARK  157  A    between atoms: _407  and  _409
REMARK  158  A    between atoms: _409  and  _410
REMARK  159  A    between atoms: _409  and  _412
REMARK  160  A    between atoms: _412  and  _413
REMARK  161  A    between atoms: _416  and  _418
REMARK  162  A    between atoms: _418  and  _419
REMARK  163  A    between atoms: _418  and  _421
REMARK  164  A    between atoms: _424  and  _426
REMARK  165  A    between atoms: _426  and  _427
REMARK  166  A    between atoms: _426  and  _429
REMARK  167  A    between atoms: _429  and  _430
REMARK  168  A    between atoms: _430  and  _431
REMARK  169  A    between atoms: _431  and  _432
REMARK  170  A    between atoms: _432  and  _433
REMARK  171  A    between atoms: _437  and  _439
REMARK  172  A    between atoms: _439  and  _440
REMARK  173  A    between atoms: _443  and  _445
REMARK  174  A    between atoms: _445  and  _446
REMARK  175  A    between atoms: _445  and  _448
REMARK  176  A    between atoms: _448  and  _449
REMARK  177  A    between atoms: _452  and  _454
REMARK  178  A    between atoms: _454  and  _455
REMARK  179  A    between atoms: _454  and  _457
REMARK  180  A    between atoms: _457  and  _458
REMARK  181  A    between atoms: _461  and  _463
REMARK  182  A    between atoms: _463  and  _464
REMARK  183  A    between atoms: _463  and  _466
REMARK  184  A    between atoms: _466  and  _467
REMARK  185  A    between atoms: _470  and  _472
REMARK  186  A    between atoms: _472  and  _473
REMARK  187  A    between atoms: _472  and  _475
REMARK  188  A    between atoms: _475  and  _476
REMARK  189  A    between atoms: _476  and  _477
REMARK  190  A    between atoms: _480  and  _482
REMARK  191  A    between atoms: _482  and  _483
REMARK  192  A    between atoms: _482  and  _485
REMARK  193  A    between atoms: _485  and  _486
REMARK  194  A    between atoms: _486  and  _487
REMARK  195  A    between atoms: _487  and  _488
REMARK  196  A    between atoms: _488  and  _489
REMARK  197  A    between atoms: _493  and  _495
REMARK  198  A    between atoms: _495  and  _496
REMARK  199  A    between atoms: _495  and  _498
REMARK  200  A    between atoms: _498  and  _499
REMARK                            x       y       z     vdW  Elec       q    Type
REMARK                         _______ _______ _______ _____ _____    ______ ____
ROOT
ATOM      1  C   UNK A   2      -7.842   5.442  10.626  0.00  0.00    +0.000 C 
ATOM      2  C   UNK A   2      -8.531   6.800  10.542  0.00  0.00    +0.000 C 
ATOM      3  O   UNK A   2      -9.746   6.908  10.721  0.00  0.00    +0.000 OA
ATOM      4  N   VAL A   3      -7.728   7.830  10.296  0.00  0.00    +0.000 N 
ATOM      5  H   VAL A   3      -6.703   7.658  10.250  0.00  0.00    +0.000 HD
ATOM      6  CA  VAL A   3      -8.213   9.188  10.087  0.00  0.00    +0.000 C 
ATOM      7  C   VAL A   3      -7.507   9.774   8.867  0.00  0.00    +0.000 C 
ATOM      8  O   VAL A   3      -6.320   9.521   8.645  0.00  0.00    +0.000 OA
ATOM      9  N   UNK A   4      -8.256  10.527   8.067  0.00  0.00    +0.000 N 
ATOM     10  H   UNK A   4      -9.287  10.532   8.205  0.00  0.00    +0.000 HD
ATOM     11  C   UNK A   4      -7.687  11.347   7.002  0.00  0.00    +0.000 C 
ATOM     12  C   UNK A   4      -7.770  10.640   5.647  0.00  0.00    +0.000 C 
ATOM     13  C   UNK A   4      -6.717   9.594   5.450  0.00  0.00    +0.000 A 
ATOM     14  N   UNK A   4      -5.371   9.886   5.457  0.00  0.00    +0.000 NA
ATOM     15  C   UNK A   4      -4.682   8.778   5.259  0.00  0.00    +0.000 A 
ATOM     16  N   UNK A   4      -5.532   7.777   5.118  0.00  0.00    +0.000 N 
ATOM     17 ZN   UNK A   2      -4.938   5.979   6.112  0.00  0.00    +0.000 Zn
ATOM     18  O   UNK A   2      -6.800   5.516   7.128  0.00  0.00    +0.000 OA
ATOM     19  C   UNK A   2      -6.684   5.579   8.370  0.00  0.00    +0.000 C 
ATOM     20  O   UNK A   2      -5.778   6.237   8.929  0.00  0.00    +0.000 OA
ATOM     21  C   UNK A   4      -6.812   8.261   5.231  0.00  0.00    +0.000 A 
ATOM     22  C   UNK A   2      -7.688   4.829   9.230  0.00  0.00    +0.000 C 
ENDROOT
BRANCH  17  23
ATOM     23  N   UNK A   2      -5.898   4.673   4.405  0.00  0.00    +0.000 N 
ATOM     24  C   UNK A   2      -5.885   3.319   4.662  0.00  0.00    +0.000 A 
ATOM     25  C   UNK A   2      -5.399   2.730   3.543  0.00  0.00    +0.000 A 
ATOM     26  N   UNK A   2      -5.125   3.732   2.643  0.00  0.00    +0.000 NA
ATOM     27  C   UNK A   2      -5.435   4.894   3.188  0.00  0.00    +0.000 A 
BRANCH  24  28
ATOM     28  C   UNK A   2      -6.353   2.744   5.962  0.00  0.00    +0.000 C 
BRANCH  28  29
ATOM     29  C   UNK A   2      -6.942   1.336   5.853  0.00  0.00    +0.000 C 
BRANCH  29  30
ATOM     30  C   UNK A   2      -7.284   0.819   7.246  0.00  0.00    +0.000 C 
ATOM     31  O   UNK A   2      -6.521   0.046   7.827  0.00  0.00    +0.000 OA
ATOM     32  N   UNK A   2      -8.429   1.255   7.774  0.00  0.00    +0.000 N 
ATOM     33  H   UNK A   2      -8.985   1.962   7.252  0.00  0.00    +0.000 HD
BRANCH  32  34
ATOM     34  C   UNK A   2      -8.929   0.773   9.061  0.00  0.00    +0.000 C 
ATOM     35  C   UNK A   2     -10.165   1.550   9.483  0.00  0.00    +0.000 C 
BRANCH  34  36
ATOM     36  C   UNK A   2      -9.231  -0.720   8.993  0.00  0.00    +0.000 C 
ATOM     37  O   UNK A   2      -8.896  -1.467   9.909  0.00  0.00    +0.000 OA
ENDBRANCH  34  36
ENDBRANCH  32  34
ENDBRANCH  29  30
BRANCH  29  38
ATOM     38  N   UNK A   2      -8.117   1.296   4.977  0.00  0.00    +0.000 NA
ATOM     39  H   UNK A   1      -8.522   2.189   4.629  0.00  0.00    +0.000 HD
ENDBRANCH  29  38
ENDBRANCH  28  29
ENDBRANCH  24  28
ENDBRANCH  17  23
BRANCH   1  42
ATOM     40  C   UNK A   1      -7.887   3.791  12.409  0.00  0.00    +0.000 C 
ATOM     41  O   UNK A   1      -6.658   3.795  12.528  0.00  0.00    +0.000 OA
ATOM     42  N   UNK A   2      -8.539   4.530  11.518  0.00  0.00    +0.000 N 
ATOM     43  H   UNK A   2      -9.574   4.454  11.457  0.00  0.00    +0.000 HD
BRANCH  40  44
ATOM     44  C   UNK A   1      -8.750   2.903  13.289  0.00  0.00    +0.000 C 
BRANCH  44  45
ATOM     45  N   UNK A   1      -8.297   1.529  13.174  0.00  0.00    +0.000 NA
ATOM     46  H   UNK A   1      -7.277   1.341  13.093  0.00  0.00    +0.000 HD
ENDBRANCH  44  45
BRANCH  44  47
ATOM     47  C   UNK A   1      -8.714   3.382  14.744  0.00  0.00    +0.000 C 
BRANCH  47  48
ATOM     48  C   UNK A   1      -9.152   4.813  14.922  0.00  0.00    +0.000 A 
ATOM     49  C   UNK A   1      -8.214   5.820  15.131  0.00  0.00    +0.000 A 
ATOM     50  C   UNK A   1      -8.612   7.143  15.293  0.00  0.00    +0.000 A 
ATOM     51  C   UNK A   1      -9.963   7.472  15.241  0.00  0.00    +0.000 A 
ATOM     52  C   UNK A   1     -10.910   6.478  15.028  0.00  0.00    +0.000 A 
ATOM     53  C   UNK A   1     -10.501   5.154  14.870  0.00  0.00    +0.000 A 
ENDBRANCH  47  48
ENDBRANCH  44  47
ENDBRANCH  40  44
ENDBRANCH   1  42
BRANCH  11  54
ATOM     54  C   UNK A   4      -8.401  12.688   6.950  0.00  0.00    +0.000 C 
ATOM     55  O   UNK A   4      -9.629  12.750   7.037  0.00  0.00    +0.000 OA
ATOM     56  N   ALA A   5      -7.623  13.758   6.822  0.00  0.00    +0.000 N 
ATOM     57  H   ALA A   5      -6.593  13.627   6.768  0.00  0.00    +0.000 HD
BRANCH  56  58
ATOM     58  CA  ALA A   5      -8.167  15.108   6.755  0.00  0.00    +0.000 C 
ATOM     59  CB  ALA A   5      -7.102  16.123   7.145  0.00  0.00    +0.000 C 
BRANCH  58  60
ATOM     60  C   ALA A   5      -8.711  15.412   5.363  0.00  0.00    +0.000 C 
ATOM     61  O   ALA A   5      -8.274  14.820   4.375  0.00  0.00    +0.000 OA
ENDBRANCH  58  60
ENDBRANCH  56  58
ENDBRANCH  11  54
BRANCH   6  62
ATOM     62  CB  VAL A   3      -7.956  10.090  11.327  0.00  0.00    +0.000 C 
ATOM     63  CG2 VAL A   3      -8.757   9.608  12.527  0.00  0.00    +0.000 C 
ATOM     64  CG1 VAL A   3      -8.286  11.551  11.029  0.00  0.00    +0.000 C 
ENDBRANCH   6  62
TORSDOF 16
REMARK  Name = ../refined-set-2016/2amt/2amt_pocket.pdb
REMARK  200 active torsions:
REMARK  status: ('A' for Active; 'I' for Inactive)
REMARK    1  A    between atoms: _1  and  _3
REMARK    2  A    between atoms: _3  and  _4
REMARK    3  A    between atoms: _3  and  _6
REMARK    4  A    between atoms: _6  and  _7
REMARK    5  A    between atoms: _13  and  _15
REMARK    6  A    between atoms: _24  and  _27
REMARK    7  A    between atoms: _32  and  _33
REMARK    8  A    between atoms: _41  and  _43
REMARK    9  A    between atoms: _43  and  _44
REMARK   10  A    between atoms: _47  and  _49
REMARK   11  A    between atoms: _49  and  _50
REMARK   12  A    between atoms: _49  and  _52
REMARK   13  A    between atoms: _52  and  _53
REMARK   14  A    between atoms: _56  and  _58
REMARK   15  A    between atoms: _58  and  _59
REMARK   16  A    between atoms: _62  and  _64
REMARK   17  A    between atoms: _64  and  _65
REMARK   18  A    between atoms: _64  and  _67
REMARK   19  A    between atoms: _67  and  _68
REMARK   20  A    between atoms: _73  and  _75
REMARK   21  A    between atoms: _75  and  _76
REMARK   22  A    between atoms: _75  and  _78
REMARK   23  A    between atoms: _78  and  _79
REMARK   24  A    between atoms: _81  and  _83
REMARK   25  A    between atoms: _83  and  _84
REMARK   26  A    between atoms: _83  and  _86
REMARK   27  A    between atoms: _86  and  _87
REMARK   28  A    between atoms: _90  and  _92
REMARK   29  A    between atoms: _92  and  _93
REMARK   30  A    between atoms: _95  and  _97
REMARK   31  A    between atoms: _97  and  _98
REMARK   32  A    between atoms: _97  and  _100
REMARK   33  A    between atoms: _100  and  _101
REMARK   34  A    between atoms: _104  and  _106
REMARK   35  A    between atoms: _106  and  _107
REMARK   36  A    between atoms: _106  and  _109
REMARK   37  A    between atoms: _112  and  _114
REMARK   38  A    between atoms: _114  and  _115
REMARK   39  A    between atoms: _114  and  _117
REMARK   40  A    between atoms: _117  and  _118
REMARK   41  A    between atoms: _119  and  ZN_502
REMARK   42  A    between atoms: _123  and  _125
REMARK   43  A    between atoms: _125  and  _126
REMARK   44  A    between atoms: _129  and  _131
REMARK   45  A    between atoms: _131  and  _132
REMARK   46  A    between atoms: _131  and  _134
REMARK   47  A    between atoms: _134  and  _135
REMARK   48  A    between atoms: _138  and  _140
REMARK   49  A    between atoms: _140  and  _141
REMARK   50  A    between atoms: _143  and  _145
REMARK   51  A    between atoms: _145  and  _146
REMARK   52  A    between atoms: _145  and  _148
REMARK   53  A    between atoms: _148  and  _149
REMARK   54  A    between atoms: _152  and  _154
REMARK   55  A    between atoms: _154  and  _155
REMARK   56  A    between atoms: _154  and  _157
REMARK   57  A    between atoms: _157  and  _158
REMARK   58  A    between atoms: _161  and  _163
REMARK   59  A    between atoms: _163  and  _164
REMARK   60  A    between atoms: _166  and  _168
REMARK   61  A    between atoms: _168  and  _169
REMARK   62  A    between atoms: _168  and  _171
REMARK   63  A    between atoms: _171  and  _172
REMARK   64  A    between atoms: _172  and  _173
REMARK   65  A    between atoms: _173  and  _174
REMARK   66  A    between atoms: _174  and  _175
REMARK   67  A    between atoms: _179  and  _181
REMARK   68  A    between atoms: _181  and  _182
REMARK   69  A    between atoms: _181  and  _184
REMARK   70  A    between atoms: _184  and  _185
REMARK   71  A    between atoms: _188  and  _190
REMARK   72  A    between atoms: _190  and  _191
REMARK   73  A    between atoms: _190  and  _193
REMARK   74  A    between atoms: _193  and  _194
REMARK   75  A    between atoms: _201  and  _202
REMARK   76  A    between atoms: _207  and  _209
REMARK   77  A    between atoms: _209  and  _210
REMARK   78  A    between atoms: _209  and  _212
REMARK   79  A    between atoms: _212  and  _213
REMARK   80  A    between atoms: _216  and  _218
REMARK   81  A    between atoms: _218  and  _219
REMARK   82  A    between atoms: _218  and  _221
REMARK   83  A    between atoms: _221  and  _222
REMARK   84  A    between atoms: _225  and  _227
REMARK   85  A    between atoms: _227  and  _228
REMARK   86  A    between atoms: _227  and  _230
REMARK   87  A    between atoms: _230  and  _231
REMARK   88  A    between atoms: _235  and  _236
REMARK   89  A    between atoms: _241  and  _243
REMARK   90  A    between atoms: _243  and  _244
REMARK   91  A    between atoms: _247  and  _249
REMARK   92  A    between atoms: _249  and  _250
REMARK   93  A    between atoms: _249  and  _252
REMARK   94  A    between atoms: _252  and  _253
REMARK   95  A    between atoms: _259  and  _261
REMARK   96  A    between atoms: _261  and  _262
REMARK   97  A    between atoms: _261  and  _264
REMARK   98  A    between atoms: _264  and  _265
REMARK   99  A    between atoms: _265  and  _266
REMARK  100  A    between atoms: _266  and  _267
REMARK  101  A    between atoms: _267  and  _268
REMARK  102  A    between atoms: _272  and  _274
REMARK  103  A    between atoms: _274  and  _275
REMARK  104  A    between atoms: _277  and  _279
REMARK  105  A    between atoms: _279  and  _280
REMARK  106  A    between atoms: _283  and  _285
REMARK  107  A    between atoms: _285  and  _286
REMARK  108  A    between atoms: _285  and  _288
REMARK  109  A    between atoms: _288  and  _289
REMARK  110  A    between atoms: _292  and  _294
REMARK  111  A    between atoms: _294  and  _295
REMARK  112  A    between atoms: _294  and  _297
REMARK  113  A    between atoms: _297  and  _298
REMARK  114  A    between atoms: _300  and  _302
REMARK  115  A    between atoms: _302  and  _303
REMARK  116  A    between atoms: _302  and  _305
REMARK  117  A    between atoms: _305  and  _306
REMARK  118  A    between atoms: _309  and  _311
REMARK  119  A    between atoms: _311  and  _312
REMARK  120  A    between atoms: _311  and  _314
REMARK  121  A    between atoms: _314  and  _315
REMARK  122  A    between atoms: _318  and  _320
REMARK  123  A    between atoms: _320  and  _321
REMARK  124  A    between atoms: _320  and  _323
REMARK  125  A    between atoms: _323  and  _324
REMARK  126  A    between atoms: _327  and  _329
REMARK  127  A    between atoms: _329  and  _330
REMARK  128  A    between atoms: _333  and  _335
REMARK  129  A    between atoms: _335  and  _336
REMARK  130  A    between atoms: _335  and  _338
REMARK  131  A    between atoms: _338  and  _339
REMARK  132  A    between atoms: _339  and  _340
REMARK  133  A    between atoms: _345  and  _347
REMARK  134  A    between atoms: _347  and  _348
REMARK  135  A    between atoms: _352  and  _353
REMARK  136  A    between atoms: _358  and  _360
REMARK  137  A    between atoms: _360  and  _361
REMARK  138  A    between atoms: _360  and  _363
REMARK  139  A    between atoms: _363  and  _364
REMARK  140  A    between atoms: _364  and  _365
REMARK  141  A    between atoms: _365  and  _366
REMARK  142  A    between atoms: _366  and  _367
REMARK  143  A    between atoms: _371  and  _373
REMARK  144  A    between atoms: _373  and  _374
REMARK  145  A    between atoms: _373  and  _376
REMARK  146  A    between atoms: _376  and  _377
REMARK  147  A    between atoms: _377  and  _378
REMARK  148  A    between atoms: _380  and  _382
REMARK  149  A    between atoms: _382  and  _383
REMARK  150  A    between atoms: _382  and  _385
REMARK  151  A    between atoms: _385  and  _386
REMARK  152  A    between atoms: _390  and  _391
REMARK  153  A    between atoms: _396  and  _398
REMARK  154  A    between atoms: _398  and  _399
REMARK  155  A    between atoms: _398  and  _401
REMARK  156  A    between atoms: _401  and  _402
REMARK  157  A    between atoms: _407  and  _409
REMARK  158  A    between atoms: _409  and  _410
REMARK  159  A    between atoms: _409  and  _412
REMARK  160  A    between atoms: _412  and  _413
REMARK  161  A    between atoms: _416  and  _418
REMARK  162  A    between atoms: _418  and  _419
REMARK  163  A    between atoms: _418  and  _421
REMARK  164  A    between atoms: _424  and  _426
REMARK  165  A    between atoms: _426  and  _427
REMARK  166  A    between atoms: _426  and  _429
REMARK  167  A    between atoms: _429  and  _430
REMARK  168  A    between atoms: _430  and  _431
REMARK  169  A    between atoms: _431  and  _432
REMARK  170  A    between atoms: _432  and  _433
REMARK  171  A    between atoms: _437  and  _439
REMARK  172  A    between atoms: _439  and  _440
REMARK  173  A    between atoms: _443  and  _445
REMARK  174  A    between atoms: _445  and  _446
REMARK  175  A    between atoms: _445  and  _448
REMARK  176  A    between atoms: _448  and  _449
REMARK  177  A    between atoms: _452  and  _454
REMARK  178  A    between atoms: _454  and  _455
REMARK  179  A    between atoms: _454  and  _457
REMARK  180  A    between atoms: _457  and  _458
REMARK  181  A    between atoms: _461  and  _463
REMARK  182  A    between atoms: _463  and  _464
REMARK  183  A    between atoms: _463  and  _466
REMARK  184  A    between atoms: _466  and  _467
REMARK  185  A    between atoms: _470  and  _472
REMARK  186  A    between atoms: _472  and  _473
REMARK  187  A    between atoms: _472  and  _475
REMARK  188  A    between atoms: _475  and  _476
REMARK  189  A    between atoms: _476  and  _477
REMARK  190  A    between atoms: _480  and  _482
REMARK  191  A    between atoms: _482  and  _483
REMARK  192  A    between atoms: _482  and  _485
REMARK  193  A    between atoms: _485  and  _486
REMARK  194  A    between atoms: _486  and  _487
REMARK  195  A    between atoms: _487  and  _488
REMARK  196  A    between atoms: _488  and  _489
REMARK  197  A    between atoms: _493  and  _495
REMARK  198  A    between atoms: _495  and  _496
REMARK  199  A    between atoms: _495  and  _498
REMARK  200  A    between atoms: _498  and  _499
REMARK                            x       y       z     vdW  Elec       q    Type
REMARK                         _______ _______ _______ _____ _____    ______ ____
ROOT
ATOM      1  C   SER A   4      -3.908   7.477  -1.194  0.00  0.00    +0.243 C 
ATOM      2  O   SER A   4      -4.115   8.585  -0.726  0.00  0.00    -0.273 OA
ATOM      3  N   ASP A   5      -4.804   6.814  -1.914  0.00  0.00    -0.296 N 
ATOM      4  H   ASP A   5      -4.596   5.836  -2.202  0.00  0.00    +0.150 HD
ENDROOT
BRANCH   1   5
ATOM      5  CA  SER A   4      -2.587   6.787  -0.940  0.00  0.00    +0.178 C 
BRANCH   5   7
ATOM      6  C   HIS A   3      -1.444   8.773  -0.137  0.00  0.00    +0.241 C 
ATOM      7  N   SER A   4      -1.957   7.573   0.106  0.00  0.00    -0.295 N 
ATOM      8  H   SER A   4      -1.906   7.186   1.070  0.00  0.00    +0.150 HD
ATOM      9  O   HIS A   3      -1.677   9.416  -1.156  0.00  0.00    -0.273 OA
BRANCH   6  10
ATOM     10  CA  HIS A   3      -0.505   9.310   0.916  0.00  0.00    +0.155 C 
BRANCH  10  13
ATOM     11  C   ALA A   2      -2.189  10.539   2.146  0.00  0.00    +0.241 C 
ATOM     12  O   ALA A   2      -3.010   9.646   2.015  0.00  0.00    -0.273 OA
ATOM     13  N   HIS A   3      -0.981  10.492   1.610  0.00  0.00    -0.297 N 
ATOM     14  H   HIS A   3      -0.358  11.321   1.688  0.00  0.00    +0.150 HD
BRANCH  11  15
ATOM     15  CA  ALA A   2      -2.513  11.781   2.938  0.00  0.00    +0.149 C 
ATOM     16  CB  ALA A   2      -2.272  11.409   4.393  0.00  0.00    +0.031 C 
BRANCH  15  18
ATOM     17  C   LEU A   1      -4.241  12.820   1.597  0.00  0.00    +0.238 C 
ATOM     18  N   ALA A   2      -3.873  12.258   2.738  0.00  0.00    -0.297 N 
ATOM     19  H   ALA A   2      -4.568  12.156   3.505  0.00  0.00    +0.150 HD
ATOM     20  O   LEU A   1      -3.782  12.472   0.511  0.00  0.00    -0.274 OA
BRANCH  17  21
ATOM     21  CA  LEU A   1      -5.282  13.937   1.691  0.00  0.00    +0.145 C 
BRANCH  21  22
ATOM     22  N   LEU A   1      -6.618  13.404   1.888  0.00  0.00    -0.238 NA
ATOM     23  H   LEU A   1      -6.982  13.334   2.860  0.00  0.00    +0.142 HD
ENDBRANCH  21  22
BRANCH  21  24
ATOM     24  CB  LEU A   1      -4.941  14.873   2.845  0.00  0.00    +0.026 C 
BRANCH  24  25
ATOM     25  CG  LEU A   1      -4.403  16.252   2.491  0.00  0.00    +0.002 C 
ATOM     26  CD2 LEU A   1      -4.851  17.279   3.503  0.00  0.00    +0.000 C 
ATOM     27  CD1 LEU A   1      -4.827  16.641   1.103  0.00  0.00    +0.000 C 
ENDBRANCH  24  25
ENDBRANCH  21  24
ENDBRANCH  17  21
ENDBRANCH  15  18
ENDBRANCH  11  15
ENDBRANCH  10  13
BRANCH  10  28
ATOM     28  CB  HIS A   3      -0.031   8.176   1.815  0.00  0.00    +0.076 C 
BRANCH  28  29
ATOM     29  CG  HIS A   3      -1.005   7.783   2.884  0.00  0.00    +0.082 A 
ATOM     30  CD2 HIS A   3      -1.482   8.460   3.954  0.00  0.00    +0.115 A 
ATOM     31  NE2 HIS A   3      -2.326   7.614   4.628  0.00  0.00    -0.221 NA
ATOM     32  CE1 HIS A   3      -2.352   6.452   4.007  0.00  0.00    +0.199 A 
ATOM     33  ND1 HIS A   3      -1.563   6.528   2.952  0.00  0.00    -0.227 NA
ENDBRANCH  28  29
ENDBRANCH  10  28
ENDBRANCH   6  10
ENDBRANCH   5   7
BRANCH   5  34
ATOM     34  CB  SER A   4      -2.800   5.333  -0.523  0.00  0.00    +0.166 C 
BRANCH  34  35
ATOM     35  OG  SER A   4      -3.584   4.632  -1.465  0.00  0.00    -0.380 OA
ATOM     36  H   SER A   4      -4.469   5.068  -1.545  0.00  0.00    +0.211 HD
ENDBRANCH  34  35
ENDBRANCH   5  34
ENDBRANCH   1   5
BRANCH   3  37
ATOM     37  CA  ASP A   5      -6.071   7.414  -2.314  0.00  0.00    +0.160 C 
BRANCH  37  38
ATOM     38  C   ASP A   5      -6.858   8.028  -1.166  0.00  0.00    +0.241 C 
ATOM     39  N   GLY A   6      -6.445   7.712   0.052  0.00  0.00    -0.295 N 
ATOM     40  H   GLY A   6      -5.658   7.039   0.150  0.00  0.00    +0.150 HD
ATOM     41  O   ASP A   5      -7.809   8.767  -1.384  0.00  0.00    -0.273 OA
BRANCH  39  42
ATOM     42  CA  GLY A   6      -7.043   8.264   1.263  0.00  0.00    +0.176 C 
BRANCH  42  43
ATOM     43  C   GLY A   6      -8.266   7.498   1.718  0.00  0.00    +0.243 C 
ATOM     44  O   GLY A   6      -9.200   8.080   2.269  0.00  0.00    -0.273 OA
ATOM     45  N   ASP A   7      -8.254   6.187   1.490  0.00  0.00    -0.296 N 
ATOM     46  H   ASP A   7      -7.414   5.759   1.051  0.00  0.00    +0.150 HD
BRANCH  45  47
ATOM     47  CA  ASP A   7      -9.381   5.333   1.837  0.00  0.00    +0.160 C 
BRANCH  47  48
ATOM     48  C   ASP A   7      -9.321   4.920   3.305  0.00  0.00    +0.241 C 
ATOM     49  N   VAL A   8      -9.903   5.755   4.166  0.00  0.00    -0.298 N 
ATOM     50  H   VAL A   8     -10.333   6.627   3.798  0.00  0.00    +0.150 HD
ATOM     51  O   ASP A   7      -8.758   3.875   3.645  0.00  0.00    -0.273 OA
BRANCH  49  52
ATOM     52  CA  VAL A   8      -9.964   5.499   5.612  0.00  0.00    +0.137 C 
BRANCH  52  53
ATOM     53  CB  VAL A   8     -10.664   6.641   6.394  0.00  0.00    +0.026 C 
ATOM     54  CG2 VAL A   8      -9.653   7.635   6.911  0.00  0.00    +0.002 C 
ATOM     55  CG1 VAL A   8     -11.727   7.323   5.542  0.00  0.00    +0.002 C 
ENDBRANCH  52  53
BRANCH  52  56
ATOM     56  C   VAL A   8     -10.670   4.195   5.949  0.00  0.00    +0.227 C 
ATOM     57  O   VAL A   8     -10.288   3.511   6.898  0.00  0.00    -0.286 OA
ENDBRANCH  52  56
ENDBRANCH  49  52
ENDBRANCH  47  48
BRANCH  47  58
ATOM     58  CB  ASP A   7      -9.419   4.107   0.921  0.00  0.00    +0.143 C 
BRANCH  58  59
ATOM     59  CG  ASP A   7     -10.812   3.522   0.774  0.00  0.00    +0.367 C 
ATOM     60  OD2 ASP A   7     -11.525   3.363   1.789  0.00  0.00    -0.246 OA
ATOM     61  OD1 ASP A   7     -11.194   3.211  -0.372  0.00  0.00    -0.246 OA
ENDBRANCH  58  59
ENDBRANCH  47  58
ENDBRANCH  45  47
ENDBRANCH  42  43
ENDBRANCH  39  42
ENDBRANCH  37  38
BRANCH  37  62
ATOM     62  CB  ASP A   5      -6.939   6.414  -3.074  0.00  0.00    +0.143 C 
BRANCH  62  63
ATOM     63  CG  ASP A   5      -6.933   5.047  -2.452  0.00  0.00    +0.367 C 
ATOM     64  OD2 ASP A   5      -6.751   4.961  -1.236  0.00  0.00    -0.246 OA
ATOM     65  OD1 ASP A   5      -7.104   4.006  -3.102  0.00  0.00    -0.246 OA
ENDBRANCH  62  63
ENDBRANCH  37  62
ENDBRANCH   3  37
TORSDOF 27
REMARK  Name = ../refined-set-2016/2amt/2amt_pocket.pdb
REMARK  200 active torsions:
REMARK  status: ('A' for Active; 'I' for Inactive)
REMARK    1  A    between atoms: _1  and  _3
REMARK    2  A    between atoms: _3  and  _4
REMARK    3  A    between atoms: _3  and  _6
REMARK    4  A    between atoms: _6  and  _7
REMARK    5  A    between atoms: _13  and  _15
REMARK    6  A    between atoms: _24  and  _27
REMARK    7  A    between atoms: _32  and  _33
REMARK    8  A    between atoms: _41  and  _43
REMARK    9  A    between atoms: _43  and  _44
REMARK   10  A    between atoms: _47  and  _49
REMARK   11  A    between atoms: _49  and  _50
REMARK   12  A    between atoms: _49  and  _52
REMARK   13  A    between atoms: _52  and  _53
REMARK   14  A    between atoms: _56  and  _58
REMARK   15  A    between atoms: _58  and  _59
REMARK   16  A    between atoms: _62  and  _64
REMARK   17  A    between atoms: _64  and  _65
REMARK   18  A    between atoms: _64  and  _67
REMARK   19  A    between atoms: _67  and  _68
REMARK   20  A    between atoms: _73  and  _75
REMARK   21  A    between atoms: _75  and  _76
REMARK   22  A    between atoms: _75  and  _78
REMARK   23  A    between atoms: _78  and  _79
REMARK   24  A    between atoms: _81  and  _83
REMARK   25  A    between atoms: _83  and  _84
REMARK   26  A    between atoms: _83  and  _86
REMARK   27  A    between atoms: _86  and  _87
REMARK   28  A    between atoms: _90  and  _92
REMARK   29  A    between atoms: _92  and  _93
REMARK   30  A    between atoms: _95  and  _97
REMARK   31  A    between atoms: _97  and  _98
REMARK   32  A    between atoms: _97  and  _100
REMARK   33  A    between atoms: _100  and  _101
REMARK   34  A    between atoms: _104  and  _106
REMARK   35  A    between atoms: _106  and  _107
REMARK   36  A    between atoms: _106  and  _109
REMARK   37  A    between atoms: _112  and  _114
REMARK   38  A    between atoms: _114  and  _115
REMARK   39  A    between atoms: _114  and  _117
REMARK   40  A    between atoms: _117  and  _118
REMARK   41  A    between atoms: _119  and  ZN_502
REMARK   42  A    between atoms: _123  and  _125
REMARK   43  A    between atoms: _125  and  _126
REMARK   44  A    between atoms: _129  and  _131
REMARK   45  A    between atoms: _131  and  _132
REMARK   46  A    between atoms: _131  and  _134
REMARK   47  A    between atoms: _134  and  _135
REMARK   48  A    between atoms: _138  and  _140
REMARK   49  A    between atoms: _140  and  _141
REMARK   50  A    between atoms: _143  and  _145
REMARK   51  A    between atoms: _145  and  _146
REMARK   52  A    between atoms: _145  and  _148
REMARK   53  A    between atoms: _148  and  _149
REMARK   54  A    between atoms: _152  and  _154
REMARK   55  A    between atoms: _154  and  _155
REMARK   56  A    between atoms: _154  and  _157
REMARK   57  A    between atoms: _157  and  _158
REMARK   58  A    between atoms: _161  and  _163
REMARK   59  A    between atoms: _163  and  _164
REMARK   60  A    between atoms: _166  and  _168
REMARK   61  A    between atoms: _168  and  _169
REMARK   62  A    between atoms: _168  and  _171
REMARK   63  A    between atoms: _171  and  _172
REMARK   64  A    between atoms: _172  and  _173
REMARK   65  A    between atoms: _173  and  _174
REMARK   66  A    between atoms: _174  and  _175
REMARK   67  A    between atoms: _179  and  _181
REMARK   68  A    between atoms: _181  and  _182
REMARK   69  A    between atoms: _181  and  _184
REMARK   70  A    between atoms: _184  and  _185
REMARK   71  A    between atoms: _188  and  _190
REMARK   72  A    between atoms: _190  and  _191
REMARK   73  A    between atoms: _190  and  _193
REMARK   74  A    between atoms: _193  and  _194
REMARK   75  A    between atoms: _201  and  _202
REMARK   76  A    between atoms: _207  and  _209
REMARK   77  A    between atoms: _209  and  _210
REMARK   78  A    between atoms: _209  and  _212
REMARK   79  A    between atoms: _212  and  _213
REMARK   80  A    between atoms: _216  and  _218
REMARK   81  A    between atoms: _218  and  _219
REMARK   82  A    between atoms: _218  and  _221
REMARK   83  A    between atoms: _221  and  _222
REMARK   84  A    between atoms: _225  and  _227
REMARK   85  A    between atoms: _227  and  _228
REMARK   86  A    between atoms: _227  and  _230
REMARK   87  A    between atoms: _230  and  _231
REMARK   88  A    between atoms: _235  and  _236
REMARK   89  A    between atoms: _241  and  _243
REMARK   90  A    between atoms: _243  and  _244
REMARK   91  A    between atoms: _247  and  _249
REMARK   92  A    between atoms: _249  and  _250
REMARK   93  A    between atoms: _249  and  _252
REMARK   94  A    between atoms: _252  and  _253
REMARK   95  A    between atoms: _259  and  _261
REMARK   96  A    between atoms: _261  and  _262
REMARK   97  A    between atoms: _261  and  _264
REMARK   98  A    between atoms: _264  and  _265
REMARK   99  A    between atoms: _265  and  _266
REMARK  100  A    between atoms: _266  and  _267
REMARK  101  A    between atoms: _267  and  _268
REMARK  102  A    between atoms: _272  and  _274
REMARK  103  A    between atoms: _274  and  _275
REMARK  104  A    between atoms: _277  and  _279
REMARK  105  A    between atoms: _279  and  _280
REMARK  106  A    between atoms: _283  and  _285
REMARK  107  A    between atoms: _285  and  _286
REMARK  108  A    between atoms: _285  and  _288
REMARK  109  A    between atoms: _288  and  _289
REMARK  110  A    between atoms: _292  and  _294
REMARK  111  A    between atoms: _294  and  _295
REMARK  112  A    between atoms: _294  and  _297
REMARK  113  A    between atoms: _297  and  _298
REMARK  114  A    between atoms: _300  and  _302
REMARK  115  A    between atoms: _302  and  _303
REMARK  116  A    between atoms: _302  and  _305
REMARK  117  A    between atoms: _305  and  _306
REMARK  118  A    between atoms: _309  and  _311
REMARK  119  A    between atoms: _311  and  _312
REMARK  120  A    between atoms: _311  and  _314
REMARK  121  A    between atoms: _314  and  _315
REMARK  122  A    between atoms: _318  and  _320
REMARK  123  A    between atoms: _320  and  _321
REMARK  124  A    between atoms: _320  and  _323
REMARK  125  A    between atoms: _323  and  _324
REMARK  126  A    between atoms: _327  and  _329
REMARK  127  A    between atoms: _329  and  _330
REMARK  128  A    between atoms: _333  and  _335
REMARK  129  A    between atoms: _335  and  _336
REMARK  130  A    between atoms: _335  and  _338
REMARK  131  A    between atoms: _338  and  _339
REMARK  132  A    between atoms: _339  and  _340
REMARK  133  A    between atoms: _345  and  _347
REMARK  134  A    between atoms: _347  and  _348
REMARK  135  A    between atoms: _352  and  _353
REMARK  136  A    between atoms: _358  and  _360
REMARK  137  A    between atoms: _360  and  _361
REMARK  138  A    between atoms: _360  and  _363
REMARK  139  A    between atoms: _363  and  _364
REMARK  140  A    between atoms: _364  and  _365
REMARK  141  A    between atoms: _365  and  _366
REMARK  142  A    between atoms: _366  and  _367
REMARK  143  A    between atoms: _371  and  _373
REMARK  144  A    between atoms: _373  and  _374
REMARK  145  A    between atoms: _373  and  _376
REMARK  146  A    between atoms: _376  and  _377
REMARK  147  A    between atoms: _377  and  _378
REMARK  148  A    between atoms: _380  and  _382
REMARK  149  A    between atoms: _382  and  _383
REMARK  150  A    between atoms: _382  and  _385
REMARK  151  A    between atoms: _385  and  _386
REMARK  152  A    between atoms: _390  and  _391
REMARK  153  A    between atoms: _396  and  _398
REMARK  154  A    between atoms: _398  and  _399
REMARK  155  A    between atoms: _398  and  _401
REMARK  156  A    between atoms: _401  and  _402
REMARK  157  A    between atoms: _407  and  _409
REMARK  158  A    between atoms: _409  and  _410
REMARK  159  A    between atoms: _409  and  _412
REMARK  160  A    between atoms: _412  and  _413
REMARK  161  A    between atoms: _416  and  _418
REMARK  162  A    between atoms: _418  and  _419
REMARK  163  A    between atoms: _418  and  _421
REMARK  164  A    between atoms: _424  and  _426
REMARK  165  A    between atoms: _426  and  _427
REMARK  166  A    between atoms: _426  and  _429
REMARK  167  A    between atoms: _429  and  _430
REMARK  168  A    between atoms: _430  and  _431
REMARK  169  A    between atoms: _431  and  _432
REMARK  170  A    between atoms: _432  and  _433
REMARK  171  A    between atoms: _437  and  _439
REMARK  172  A    between atoms: _439  and  _440
REMARK  173  A    between atoms: _443  and  _445
REMARK  174  A    between atoms: _445  and  _446
REMARK  175  A    between atoms: _445  and  _448
REMARK  176  A    between atoms: _448  and  _449
REMARK  177  A    between atoms: _452  and  _454
REMARK  178  A    between atoms: _454  and  _455
REMARK  179  A    between atoms: _454  and  _457
REMARK  180  A    between atoms: _457  and  _458
REMARK  181  A    between atoms: _461  and  _463
REMARK  182  A    between atoms: _463  and  _464
REMARK  183  A    between atoms: _463  and  _466
REMARK  184  A    between atoms: _466  and  _467
REMARK  185  A    between atoms: _470  and  _472
REMARK  186  A    between atoms: _472  and  _473
REMARK  187  A    between atoms: _472  and  _475
REMARK  188  A    between atoms: _475  and  _476
REMARK  189  A    between atoms: _476  and  _477
REMARK  190  A    between atoms: _480  and  _482
REMARK  191  A    between atoms: _482  and  _483
REMARK  192  A    between atoms: _482  and  _485
REMARK  193  A    between atoms: _485  and  _486
REMARK  194  A    between atoms: _486  and  _487
REMARK  195  A    between atoms: _487  and  _488
REMARK  196  A    between atoms: _488  and  _489
REMARK  197  A    between atoms: _493  and  _495
REMARK  198  A    between atoms: _495  and  _496
REMARK  199  A    between atoms: _495  and  _498
REMARK  200  A    between atoms: _498  and  _499
REMARK                            x       y       z     vdW  Elec       q    Type
REMARK                         _______ _______ _______ _____ _____    ______ ____
ROOT
ATOM      1  CA  ASP A   1      -5.326  -2.490  10.224  0.00  0.00    +0.144 C 
ENDROOT
BRANCH   1   2
ATOM      2  N   ASP A   1      -5.890  -2.494   8.875  0.00  0.00    -0.239 NA
ATOM      3  H   ASP A   1      -6.318  -1.618   8.513  0.00  0.00    +0.142 HD
ENDBRANCH   1   2
BRANCH   1   4
ATOM      4  C   ASP A   1      -5.997  -3.487  11.164  0.00  0.00    +0.225 C 
ATOM      5  O   ASP A   1      -5.325  -4.110  11.984  0.00  0.00    -0.287 OA
ENDBRANCH   1   4
BRANCH   1   6
ATOM      6  CB  ASP A   1      -5.389  -1.084  10.827  0.00  0.00    +0.139 C 
BRANCH   6   7
ATOM      7  CG  ASP A   1      -4.259  -0.189  10.349  0.00  0.00    +0.367 C 
ATOM      8  OD2 ASP A   1      -4.386   1.047  10.481  0.00  0.00    -0.246 OA
ATOM      9  OD1 ASP A   1      -3.242  -0.715   9.850  0.00  0.00    -0.246 OA
ENDBRANCH   6   7
ENDBRANCH   1   6
TORSDOF 4
REMARK  Name = ../refined-set-2016/2amt/2amt_pocket.pdb
REMARK  200 active torsions:
REMARK  status: ('A' for Active; 'I' for Inactive)
REMARK    1  A    between atoms: _1  and  _3
REMARK    2  A    between atoms: _3  and  _4
REMARK    3  A    between atoms: _3  and  _6
REMARK    4  A    between atoms: _6  and  _7
REMARK    5  A    between atoms: _13  and  _15
REMARK    6  A    between atoms: _24  and  _27
REMARK    7  A    between atoms: _32  and  _33
REMARK    8  A    between atoms: _41  and  _43
REMARK    9  A    between atoms: _43  and  _44
REMARK   10  A    between atoms: _47  and  _49
REMARK   11  A    between atoms: _49  and  _50
REMARK   12  A    between atoms: _49  and  _52
REMARK   13  A    between atoms: _52  and  _53
REMARK   14  A    between atoms: _56  and  _58
REMARK   15  A    between atoms: _58  and  _59
REMARK   16  A    between atoms: _62  and  _64
REMARK   17  A    between atoms: _64  and  _65
REMARK   18  A    between atoms: _64  and  _67
REMARK   19  A    between atoms: _67  and  _68
REMARK   20  A    between atoms: _73  and  _75
REMARK   21  A    between atoms: _75  and  _76
REMARK   22  A    between atoms: _75  and  _78
REMARK   23  A    between atoms: _78  and  _79
REMARK   24  A    between atoms: _81  and  _83
REMARK   25  A    between atoms: _83  and  _84
REMARK   26  A    between atoms: _83  and  _86
REMARK   27  A    between atoms: _86  and  _87
REMARK   28  A    between atoms: _90  and  _92
REMARK   29  A    between atoms: _92  and  _93
REMARK   30  A    between atoms: _95  and  _97
REMARK   31  A    between atoms: _97  and  _98
REMARK   32  A    between atoms: _97  and  _100
REMARK   33  A    between atoms: _100  and  _101
REMARK   34  A    between atoms: _104  and  _106
REMARK   35  A    between atoms: _106  and  _107
REMARK   36  A    between atoms: _106  and  _109
REMARK   37  A    between atoms: _112  and  _114
REMARK   38  A    between atoms: _114  and  _115
REMARK   39  A    between atoms: _114  and  _117
REMARK   40  A    between atoms: _117  and  _118
REMARK   41  A    between atoms: _119  and  ZN_502
REMARK   42  A    between atoms: _123  and  _125
REMARK   43  A    between atoms: _125  and  _126
REMARK   44  A    between atoms: _129  and  _131
REMARK   45  A    between atoms: _131  and  _132
REMARK   46  A    between atoms: _131  and  _134
REMARK   47  A    between atoms: _134  and  _135
REMARK   48  A    between atoms: _138  and  _140
REMARK   49  A    between atoms: _140  and  _141
REMARK   50  A    between atoms: _143  and  _145
REMARK   51  A    between atoms: _145  and  _146
REMARK   52  A    between atoms: _145  and  _148
REMARK   53  A    between atoms: _148  and  _149
REMARK   54  A    between atoms: _152  and  _154
REMARK   55  A    between atoms: _154  and  _155
REMARK   56  A    between atoms: _154  and  _157
REMARK   57  A    between atoms: _157  and  _158
REMARK   58  A    between atoms: _161  and  _163
REMARK   59  A    between atoms: _163  and  _164
REMARK   60  A    between atoms: _166  and  _168
REMARK   61  A    between atoms: _168  and  _169
REMARK   62  A    between atoms: _168  and  _171
REMARK   63  A    between atoms: _171  and  _172
REMARK   64  A    between atoms: _172  and  _173
REMARK   65  A    between atoms: _173  and  _174
REMARK   66  A    between atoms: _174  and  _175
REMARK   67  A    between atoms: _179  and  _181
REMARK   68  A    between atoms: _181  and  _182
REMARK   69  A    between atoms: _181  and  _184
REMARK   70  A    between atoms: _184  and  _185
REMARK   71  A    between atoms: _188  and  _190
REMARK   72  A    between atoms: _190  and  _191
REMARK   73  A    between atoms: _190  and  _193
REMARK   74  A    between atoms: _193  and  _194
REMARK   75  A    between atoms: _201  and  _202
REMARK   76  A    between atoms: _207  and  _209
REMARK   77  A    between atoms: _209  and  _210
REMARK   78  A    between atoms: _209  and  _212
REMARK   79  A    between atoms: _212  and  _213
REMARK   80  A    between atoms: _216  and  _218
REMARK   81  A    between atoms: _218  and  _219
REMARK   82  A    between atoms: _218  and  _221
REMARK   83  A    between atoms: _221  and  _222
REMARK   84  A    between atoms: _225  and  _227
REMARK   85  A    between atoms: _227  and  _228
REMARK   86  A    between atoms: _227  and  _230
REMARK   87  A    between atoms: _230  and  _231
REMARK   88  A    between atoms: _235  and  _236
REMARK   89  A    between atoms: _241  and  _243
REMARK   90  A    between atoms: _243  and  _244
REMARK   91  A    between atoms: _247  and  _249
REMARK   92  A    between atoms: _249  and  _250
REMARK   93  A    between atoms: _249  and  _252
REMARK   94  A    between atoms: _252  and  _253
REMARK   95  A    between atoms: _259  and  _261
REMARK   96  A    between atoms: _261  and  _262
REMARK   97  A    between atoms: _261  and  _264
REMARK   98  A    between atoms: _264  and  _265
REMARK   99  A    between atoms: _265  and  _266
REMARK  100  A    between atoms: _266  and  _267
REMARK  101  A    between atoms: _267  and  _268
REMARK  102  A    between atoms: _272  and  _274
REMARK  103  A    between atoms: _274  and  _275
REMARK  104  A    between atoms: _277  and  _279
REMARK  105  A    between atoms: _279  and  _280
REMARK  106  A    between atoms: _283  and  _285
REMARK  107  A    between atoms: _285  and  _286
REMARK  108  A    between atoms: _285  and  _288
REMARK  109  A    between atoms: _288  and  _289
REMARK  110  A    between atoms: _292  and  _294
REMARK  111  A    between atoms: _294  and  _295
REMARK  112  A    between atoms: _294  and  _297
REMARK  113  A    between atoms: _297  and  _298
REMARK  114  A    between atoms: _300  and  _302
REMARK  115  A    between atoms: _302  and  _303
REMARK  116  A    between atoms: _302  and  _305
REMARK  117  A    between atoms: _305  and  _306
REMARK  118  A    between atoms: _309  and  _311
REMARK  119  A    between atoms: _311  and  _312
REMARK  120  A    between atoms: _311  and  _314
REMARK  121  A    between atoms: _314  and  _315
REMARK  122  A    between atoms: _318  and  _320
REMARK  123  A    between atoms: _320  and  _321
REMARK  124  A    between atoms: _320  and  _323
REMARK  125  A    between atoms: _323  and  _324
REMARK  126  A    between atoms: _327  and  _329
REMARK  127  A    between atoms: _329  and  _330
REMARK  128  A    between atoms: _333  and  _335
REMARK  129  A    between atoms: _335  and  _336
REMARK  130  A    between atoms: _335  and  _338
REMARK  131  A    between atoms: _338  and  _339
REMARK  132  A    between atoms: _339  and  _340
REMARK  133  A    between atoms: _345  and  _347
REMARK  134  A    between atoms: _347  and  _348
REMARK  135  A    between atoms: _352  and  _353
REMARK  136  A    between atoms: _358  and  _360
REMARK  137  A    between atoms: _360  and  _361
REMARK  138  A    between atoms: _360  and  _363
REMARK  139  A    between atoms: _363  and  _364
REMARK  140  A    between atoms: _364  and  _365
REMARK  141  A    between atoms: _365  and  _366
REMARK  142  A    between atoms: _366  and  _367
REMARK  143  A    between atoms: _371  and  _373
REMARK  144  A    between atoms: _373  and  _374
REMARK  145  A    between atoms: _373  and  _376
REMARK  146  A    between atoms: _376  and  _377
REMARK  147  A    between atoms: _377  and  _378
REMARK  148  A    between atoms: _380  and  _382
REMARK  149  A    between atoms: _382  and  _383
REMARK  150  A    between atoms: _382  and  _385
REMARK  151  A    between atoms: _385  and  _386
REMARK  152  A    between atoms: _390  and  _391
REMARK  153  A    between atoms: _396  and  _398
REMARK  154  A    between atoms: _398  and  _399
REMARK  155  A    between atoms: _398  and  _401
REMARK  156  A    between atoms: _401  and  _402
REMARK  157  A    between atoms: _407  and  _409
REMARK  158  A    between atoms: _409  and  _410
REMARK  159  A    between atoms: _409  and  _412
REMARK  160  A    between atoms: _412  and  _413
REMARK  161  A    between atoms: _416  and  _418
REMARK  162  A    between atoms: _418  and  _419
REMARK  163  A    between atoms: _418  and  _421
REMARK  164  A    between atoms: _424  and  _426
REMARK  165  A    between atoms: _426  and  _427
REMARK  166  A    between atoms: _426  and  _429
REMARK  167  A    between atoms: _429  and  _430
REMARK  168  A    between atoms: _430  and  _431
REMARK  169  A    between atoms: _431  and  _432
REMARK  170  A    between atoms: _432  and  _433
REMARK  171  A    between atoms: _437  and  _439
REMARK  172  A    between atoms: _439  and  _440
REMARK  173  A    between atoms: _443  and  _445
REMARK  174  A    between atoms: _445  and  _446
REMARK  175  A    between atoms: _445  and  _448
REMARK  176  A    between atoms: _448  and  _449
REMARK  177  A    between atoms: _452  and  _454
REMARK  178  A    between atoms: _454  and  _455
REMARK  179  A    between atoms: _454  and  _457
REMARK  180  A    between atoms: _457  and  _458
REMARK  181  A    between atoms: _461  and  _463
REMARK  182  A    between atoms: _463  and  _464
REMARK  183  A    between atoms: _463  and  _466
REMARK  184  A    between atoms: _466  and  _467
REMARK  185  A    between atoms: _470  and  _472
REMARK  186  A    between atoms: _472  and  _473
REMARK  187  A    between atoms: _472  and  _475
REMARK  188  A    between atoms: _475  and  _476
REMARK  189  A    between atoms: _476  and  _477
REMARK  190  A    between atoms: _480  and  _482
REMARK  191  A    between atoms: _482  and  _483
REMARK  192  A    between atoms: _482  and  _485
REMARK  193  A    between atoms: _485  and  _486
REMARK  194  A    between atoms: _486  and  _487
REMARK  195  A    between atoms: _487  and  _488
REMARK  196  A    between atoms: _488  and  _489
REMARK  197  A    between atoms: _493  and  _495
REMARK  198  A    between atoms: _495  and  _496
REMARK  199  A    between atoms: _495  and  _498
REMARK  200  A    between atoms: _498  and  _499
REMARK                            x       y       z     vdW  Elec       q    Type
REMARK                         _______ _______ _______ _____ _____    ______ ____
ROOT
ATOM      1  CA  THR A  10      10.753   4.695   2.766  0.00  0.00    +0.176 C 
ENDROOT
BRANCH   1   3
ATOM      2  C   ASP A   9       8.421   5.465   2.963  0.00  0.00    +0.241 C 
ATOM      3  N   THR A  10       9.496   4.880   3.491  0.00  0.00    -0.295 N 
ATOM      4  H   THR A  10       9.438   4.537   4.471  0.00  0.00    +0.150 HD
ATOM      5  O   ASP A   9       8.344   5.820   1.784  0.00  0.00    -0.273 OA
BRANCH   2   6
ATOM      6  CA  ASP A   9       7.244   5.665   3.915  0.00  0.00    +0.160 C 
BRANCH   6   8
ATOM      7  C   PRO A   8       6.668   3.296   4.207  0.00  0.00    +0.241 C 
ATOM      8  N   ASP A   9       7.018   4.471   4.731  0.00  0.00    -0.297 N 
ATOM      9  H   ASP A   9       7.135   4.542   5.762  0.00  0.00    +0.150 HD
ATOM     10  O   PRO A   8       6.428   3.127   3.007  0.00  0.00    -0.273 OA
BRANCH   7  13
ATOM     11  C   PHE A   7       4.685   0.816   4.248  0.00  0.00    +0.244 C 
ATOM     12  N   PRO A   8       5.982   0.915   4.600  0.00  0.00    -0.272 N 
ATOM     13  CA  PRO A   8       6.563   2.127   5.189  0.00  0.00    +0.152 C 
ATOM     14  CB  PRO A   8       7.968   1.673   5.618  0.00  0.00    +0.031 C 
ATOM     15  CG  PRO A   8       7.925   0.176   5.603  0.00  0.00    +0.024 C 
ATOM     16  CD  PRO A   8       6.982  -0.165   4.504  0.00  0.00    +0.094 C 
ATOM     17  O   PHE A   7       3.886   1.746   4.377  0.00  0.00    -0.273 OA
BRANCH  11  18
ATOM     18  CA  PHE A   7       4.219  -0.526   3.681  0.00  0.00    +0.153 C 
BRANCH  18  20
ATOM     19  C   LEU A   6       4.517  -2.667   4.821  0.00  0.00    +0.241 C 
ATOM     20  N   PHE A   7       3.941  -1.469   4.758  0.00  0.00    -0.297 N 
ATOM     21  H   PHE A   7       3.269  -1.196   5.503  0.00  0.00    +0.150 HD
ATOM     22  O   LEU A   6       5.377  -3.049   4.027  0.00  0.00    -0.273 OA
BRANCH  19  23
ATOM     23  CA  LEU A   6       4.051  -3.573   5.952  0.00  0.00    +0.149 C 
BRANCH  23  26
ATOM     24  C   LYS A   5       4.908  -2.324   7.869  0.00  0.00    +0.241 C 
ATOM     25  O   LYS A   5       6.083  -2.506   7.538  0.00  0.00    -0.273 OA
ATOM     26  N   LEU A   6       3.874  -2.828   7.196  0.00  0.00    -0.297 N 
ATOM     27  H   LEU A   6       2.913  -2.687   7.567  0.00  0.00    +0.150 HD
BRANCH  24  28
ATOM     28  CA  LYS A   5       4.575  -1.494   9.109  0.00  0.00    +0.149 C 
BRANCH  28  30
ATOM     29  C   GLY A   4       3.618   0.576   8.225  0.00  0.00    +0.243 C 
ATOM     30  N   LYS A   5       3.460  -0.580   8.868  0.00  0.00    -0.297 N 
ATOM     31  H   LYS A   5       2.513  -0.841   9.210  0.00  0.00    +0.150 HD
ATOM     32  O   GLY A   4       4.703   0.962   7.787  0.00  0.00    -0.273 OA
BRANCH  29  33
ATOM     33  CA  GLY A   4       2.374   1.424   8.043  0.00  0.00    +0.176 C 
BRANCH  33  35
ATOM     34  C   ILE A   3       0.789  -0.206   7.137  0.00  0.00    +0.241 C 
ATOM     35  N   GLY A   4       1.131   0.660   8.089  0.00  0.00    -0.295 N 
ATOM     36  H   GLY A   4       0.489   0.797   8.895  0.00  0.00    +0.150 HD
ATOM     37  O   ILE A   3       1.496  -0.436   6.154  0.00  0.00    -0.273 OA
BRANCH  34  38
ATOM     38  CA  ILE A   3      -0.541  -0.947   7.338  0.00  0.00    +0.149 C 
BRANCH  38  41
ATOM     39  C   ASP A   2       0.029  -2.058   9.458  0.00  0.00    +0.241 C 
ATOM     40  O   ASP A   2       1.032  -2.605   8.993  0.00  0.00    -0.273 OA
ATOM     41  N   ILE A   3      -0.778  -1.275   8.745  0.00  0.00    -0.297 N 
ATOM     42  H   ILE A   3      -1.618  -0.877   9.211  0.00  0.00    +0.150 HD
BRANCH  39  43
ATOM     43  CA  ASP A   2      -0.366  -2.254  10.923  0.00  0.00    +0.160 C 
BRANCH  43  46
ATOM     44  C   GLY A   1       0.170  -3.922  12.630  0.00  0.00    +0.240 C 
ATOM     45  O   GLY A   1      -1.002  -4.008  13.004  0.00  0.00    -0.274 OA
ATOM     46  N   ASP A   2       0.566  -3.118  11.647  0.00  0.00    -0.297 N 
ATOM     47  H   ASP A   2       1.572  -3.103  11.384  0.00  0.00    +0.150 HD
BRANCH  44  48
ATOM     48  CA  GLY A   1       1.255  -4.748  13.293  0.00  0.00    +0.169 C 
BRANCH  48  49
ATOM     49  N   GLY A   1       1.087  -6.186  13.083  0.00  0.00    -0.236 NA
ATOM     50  H   GLY A   1       0.692  -6.761  13.854  0.00  0.00    +0.142 HD
ENDBRANCH  48  49
ENDBRANCH  44  48
ENDBRANCH  43  46
BRANCH  43  51
ATOM     51  CB  ASP A   2      -0.522  -0.897  11.634  0.00  0.00    +0.143 C 
BRANCH  51  52
ATOM     52  CG  ASP A   2       0.812  -0.224  11.934  0.00  0.00    +0.367 C 
ATOM     53  OD2 ASP A   2       1.040   0.119  13.110  0.00  0.00    -0.246 OA
ATOM     54  OD1 ASP A   2       1.625  -0.022  11.008  0.00  0.00    -0.246 OA
ENDBRANCH  51  52
ENDBRANCH  43  51
ENDBRANCH  39  43
ENDBRANCH  38  41
BRANCH  38  55
ATOM     55  CB  ILE A   3      -1.749  -0.159   6.734  0.00  0.00    +0.027 C 
ATOM     56  CG2 ILE A   3      -1.976   1.170   7.469  0.00  0.00    +0.002 C 
BRANCH  55  57
ATOM     57  CG1 ILE A   3      -1.583   0.046   5.225  0.00  0.00    +0.002 C 
ATOM     58  CD1 ILE A   3      -2.882   0.329   4.491  0.00  0.00    +0.000 C 
ENDBRANCH  55  57
ENDBRANCH  38  55
ENDBRANCH  34  38
ENDBRANCH  33  35
ENDBRANCH  29  33
ENDBRANCH  28  30
BRANCH  28  59
ATOM     59  CB  LYS A   5       4.278  -2.408  10.301  0.00  0.00    +0.029 C 
BRANCH  59  60
ATOM     60  CG  LYS A   5       5.504  -3.112  10.863  0.00  0.00    +0.000 C 
BRANCH  60  61
ATOM     61  CD  LYS A   5       5.147  -3.994  12.044  0.00  0.00    -0.024 C 
BRANCH  61  62
ATOM     62  CE  LYS A   5       6.373  -4.711  12.577  0.00  0.00    -0.086 C 
BRANCH  62  63
ATOM     63  NZ  LYS A   5       6.026  -5.640  13.687  0.00  0.00    +0.380 N 
ATOM     64  HZ1 LYS A   5       5.595  -5.102  14.466  0.00  0.00    -0.089 HD
ATOM     65  HZ2 LYS A   5       6.889  -6.112  14.025  0.00  0.00    -0.089 HD
ATOM     66  HZ3 LYS A   5       5.352  -6.353  13.343  0.00  0.00    -0.089 HD
ENDBRANCH  62  63
ENDBRANCH  61  62
ENDBRANCH  60  61
ENDBRANCH  59  60
ENDBRANCH  28  59
ENDBRANCH  24  28
ENDBRANCH  23  26
BRANCH  23  67
ATOM     67  CB  LEU A   6       2.753  -4.273   5.536  0.00  0.00    +0.029 C 
BRANCH  67  68
ATOM     68  CG  LEU A   6       2.288  -5.541   6.254  0.00  0.00    +0.002 C 
ATOM     69  CD2 LEU A   6       3.416  -6.553   6.433  0.00  0.00    +0.000 C 
ATOM     70  CD1 LEU A   6       1.151  -6.158   5.459  0.00  0.00    +0.000 C 
ENDBRANCH  67  68
ENDBRANCH  23  67
ENDBRANCH  19  23
ENDBRANCH  18  20
BRANCH  18  71
ATOM     71  CB  PHE A   7       2.979  -0.340   2.798  0.00  0.00    +0.055 C 
BRANCH  71  72
ATOM     72  CG  PHE A   7       2.118  -1.572   2.687  0.00  0.00    -0.020 A 
ATOM     73  CD2 PHE A   7       0.896  -1.640   3.346  0.00  0.00    -0.004 A 
ATOM     74  CE2 PHE A   7       0.095  -2.774   3.252  0.00  0.00    -0.000 A 
ATOM     75  CZ  PHE A   7       0.517  -3.858   2.494  0.00  0.00    -0.000 A 
ATOM     76  CE1 PHE A   7       1.738  -3.804   1.833  0.00  0.00    -0.000 A 
ATOM     77  CD1 PHE A   7       2.530  -2.666   1.933  0.00  0.00    -0.004 A 
ENDBRANCH  71  72
ENDBRANCH  18  71
ENDBRANCH  11  18
ENDBRANCH   7  13
ENDBRANCH   6   8
BRANCH   6  78
ATOM     78  CB  ASP A   9       7.510   6.885   4.810  0.00  0.00    +0.143 C 
BRANCH  78  79
ATOM     79  CG  ASP A   9       6.288   7.316   5.608  0.00  0.00    +0.367 C 
ATOM     80  OD2 ASP A   9       6.259   8.486   6.052  0.00  0.00    -0.246 OA
ATOM     81  OD1 ASP A   9       5.362   6.495   5.800  0.00  0.00    -0.246 OA
ENDBRANCH  78  79
ENDBRANCH   6  78
ENDBRANCH   2   6
ENDBRANCH   1   3
BRANCH   1  82
ATOM     82  C   THR A  10      10.618   3.768   1.556  0.00  0.00    +0.243 C 
ATOM     83  N   ASP A  11      10.021   2.595   1.772  0.00  0.00    -0.296 N 
ATOM     84  H   ASP A  11       9.640   2.400   2.720  0.00  0.00    +0.150 HD
ATOM     85  O   THR A  10      11.043   4.121   0.454  0.00  0.00    -0.273 OA
BRANCH  83  86
ATOM     86  CA  ASP A  11       9.877   1.570   0.737  0.00  0.00    +0.160 C 
BRANCH  86  87
ATOM     87  C   ASP A  11       9.140   2.104  -0.496  0.00  0.00    +0.244 C 
ATOM     88  O   ASP A  11       7.950   2.423  -0.420  0.00  0.00    -0.273 OA
ATOM     89  N   PRO A  12       9.853   2.214  -1.636  0.00  0.00    -0.272 N 
ATOM     90  CD  PRO A  12      11.274   1.859  -1.831  0.00  0.00    +0.094 C 
ATOM     91  CG  PRO A  12      11.510   2.115  -3.295  0.00  0.00    +0.024 C 
ATOM     92  CB  PRO A  12      10.463   3.079  -3.729  0.00  0.00    +0.031 C 
ATOM     93  CA  PRO A  12       9.248   2.736  -2.864  0.00  0.00    +0.152 C 
BRANCH  93  94
ATOM     94  C   PRO A  12       8.357   1.716  -3.578  0.00  0.00    +0.241 C 
ATOM     95  N   ALA A  13       8.448   0.452  -3.167  0.00  0.00    -0.297 N 
ATOM     96  H   ALA A  13       9.077   0.235  -2.368  0.00  0.00    +0.150 HD
ATOM     97  O   PRO A  12       7.603   2.087  -4.480  0.00  0.00    -0.273 OA
BRANCH  95  98
ATOM     98  CA  ALA A  13       7.704  -0.646  -3.788  0.00  0.00    +0.149 C 
ATOM     99  CB  ALA A  13       8.024  -1.966  -3.091  0.00  0.00    +0.031 C 
BRANCH  98 100
ATOM    100  C   ALA A  13       6.196  -0.407  -3.812  0.00  0.00    +0.241 C 
ATOM    101  N   PHE A  14       5.662   0.097  -2.704  0.00  0.00    -0.297 N 
ATOM    102  H   PHE A  14       6.290   0.366  -1.919  0.00  0.00    +0.150 HD
ATOM    103  O   ALA A  13       5.537  -0.663  -4.821  0.00  0.00    -0.273 OA
BRANCH 101 104
ATOM    104  CA  PHE A  14       4.221   0.285  -2.554  0.00  0.00    +0.153 C 
BRANCH 104 105
ATOM    105  C   PHE A  14       3.776   1.726  -2.804  0.00  0.00    +0.241 C 
ATOM    106  O   PHE A  14       2.588   2.040  -2.695  0.00  0.00    -0.273 OA
ATOM    107  N   LYS A  15       4.732   2.589  -3.147  0.00  0.00    -0.297 N 
ATOM    108  H   LYS A  15       5.713   2.250  -3.213  0.00  0.00    +0.150 HD
BRANCH 107 109
ATOM    109  CA  LYS A  15       4.453   3.993  -3.434  0.00  0.00    +0.149 C 
BRANCH 109 110
ATOM    110  C   LYS A  15       3.574   4.123  -4.677  0.00  0.00    +0.241 C 
ATOM    111  N   GLY A  16       2.395   4.715  -4.497  0.00  0.00    -0.295 N 
ATOM    112  H   GLY A  16       2.123   5.013  -3.538  0.00  0.00    +0.150 HD
ATOM    113  O   LYS A  15       3.954   3.681  -5.765  0.00  0.00    -0.273 OA
BRANCH 111 114
ATOM    114  CA  GLY A  16       1.471   4.960  -5.602  0.00  0.00    +0.176 C 
BRANCH 114 115
ATOM    115  C   GLY A  16       0.350   3.944  -5.736  0.00  0.00    +0.243 C 
ATOM    116  N   ALA A  17       0.411   2.880  -4.938  0.00  0.00    -0.297 N 
ATOM    117  H   ALA A  17       1.218   2.786  -4.289  0.00  0.00    +0.150 HD
ATOM    118  O   GLY A  16      -0.558   4.122  -6.554  0.00  0.00    -0.273 OA
BRANCH 116 119
ATOM    119  CA  ALA A  17      -0.617   1.837  -4.941  0.00  0.00    +0.149 C 
ATOM    120  CB  ALA A  17      -0.070   0.554  -4.335  0.00  0.00    +0.031 C 
BRANCH 119 121
ATOM    121  C   ALA A  17      -1.869   2.284  -4.193  0.00  0.00    +0.241 C 
ATOM    122  O   ALA A  17      -1.778   2.922  -3.142  0.00  0.00    -0.273 OA
ATOM    123  N   ASP A  18      -3.036   1.945  -4.740  0.00  0.00    -0.297 N 
ATOM    124  H   ASP A  18      -3.040   1.444  -5.652  0.00  0.00    +0.150 HD
BRANCH 123 125
ATOM    125  CA  ASP A  18      -4.312   2.257  -4.095  0.00  0.00    +0.160 C 
BRANCH 125 126
ATOM    126  C   ASP A  18      -4.582   1.327  -2.909  0.00  0.00    +0.241 C 
ATOM    127  N   SER A  19      -5.575   1.682  -2.096  0.00  0.00    -0.296 N 
ATOM    128  H   SER A  19      -6.166   2.498  -2.354  0.00  0.00    +0.150 HD
ATOM    129  O   ASP A  18      -3.906   0.309  -2.743  0.00  0.00    -0.273 OA
BRANCH 127 130
ATOM    130  CA  SER A  19      -5.867   0.967  -0.852  0.00  0.00    +0.166 C 
BRANCH 130 131
ATOM    131  CB  SER A  19      -6.388  -0.452  -1.052  0.00  0.00    +0.229 C 
ATOM    132  OG  SER A  19      -6.193  -1.308  -0.190  0.00  0.00    -0.286 OA
ENDBRANCH 130 131
BRANCH 130 133
ATOM    133  C   SER A  19      -6.842   1.771   0.004  0.00  0.00    +0.165 C 
BRANCH 133 134
ATOM    134  O   SER A  19      -6.283   3.024   0.347  0.00  0.00    -0.380 OA
ATOM    135  H   SER A  19      -6.084   3.533  -0.479  0.00  0.00    +0.211 HD
ENDBRANCH 133 134
ENDBRANCH 130 133
ENDBRANCH 127 130
ENDBRANCH 125 126
BRANCH 125 136
ATOM    136  CB  ASP A  18      -5.476   2.253  -5.106  0.00  0.00    +0.143 C 
BRANCH 136 137
ATOM    137  CG  ASP A  18      -5.719   0.888  -5.746  0.00  0.00    +0.367 C 
ATOM    138  OD2 ASP A  18      -5.923  -0.108  -5.019  0.00  0.00    -0.246 OA
ATOM    139  OD1 ASP A  18      -5.740   0.820  -6.993  0.00  0.00    -0.246 OA
ENDBRANCH 136 137
ENDBRANCH 125 136
ENDBRANCH 123 125
ENDBRANCH 119 121
ENDBRANCH 116 119
ENDBRANCH 114 115
ENDBRANCH 111 114
ENDBRANCH 109 110
BRANCH 109 140
ATOM    140  CB  LYS A  15       5.758   4.777  -3.615  0.00  0.00    +0.029 C 
BRANCH 140 141
ATOM    141  CG  LYS A  15       5.573   6.279  -3.808  0.00  0.00    +0.000 C 
BRANCH 141 142
ATOM    142  CD  LYS A  15       6.850   6.940  -4.309  0.00  0.00    -0.024 C 
BRANCH 142 143
ATOM    143  CE  LYS A  15       6.601   8.386  -4.712  0.00  0.00    -0.086 C 
BRANCH 143 144
ATOM    144  NZ  LYS A  15       7.790   8.987  -5.380  0.00  0.00    +0.380 N 
ATOM    145  HZ1 LYS A  15       8.601   8.964  -4.729  0.00  0.00    -0.089 HD
ATOM    146  HZ2 LYS A  15       7.580   9.972  -5.639  0.00  0.00    -0.089 HD
ATOM    147  HZ3 LYS A  15       8.017   8.443  -6.237  0.00  0.00    -0.089 HD
ENDBRANCH 143 144
ENDBRANCH 142 143
ENDBRANCH 141 142
ENDBRANCH 140 141
ENDBRANCH 109 140
ENDBRANCH 107 109
ENDBRANCH 104 105
BRANCH 104 148
ATOM    148  CB  PHE A  14       3.769  -0.189  -1.170  0.00  0.00    +0.055 C 
BRANCH 148 149
ATOM    149  CG  PHE A  14       4.265  -1.562  -0.813  0.00  0.00    -0.020 A 
ATOM    150  CD2 PHE A  14       5.324  -1.721   0.079  0.00  0.00    -0.004 A 
ATOM    151  CE2 PHE A  14       5.793  -2.992   0.414  0.00  0.00    -0.000 A 
ATOM    152  CZ  PHE A  14       5.203  -4.117  -0.153  0.00  0.00    -0.000 A 
ATOM    153  CE1 PHE A  14       4.145  -3.970  -1.051  0.00  0.00    -0.000 A 
ATOM    154  CD1 PHE A  14       3.685  -2.696  -1.377  0.00  0.00    -0.004 A 
ENDBRANCH 148 149
ENDBRANCH 104 148
ENDBRANCH 101 104
ENDBRANCH  98 100
ENDBRANCH  95  98
ENDBRANCH  93  94
ENDBRANCH  86  87
BRANCH  86 155
ATOM    155  CB  ASP A  11       9.151   0.344   1.307  0.00  0.00    +0.143 C 
BRANCH 155 156
ATOM    156  CG  ASP A  11       9.490  -0.945   0.568  0.00  0.00    +0.367 C 
ATOM    157  OD2 ASP A  11       9.216  -2.028   1.127  0.00  0.00    -0.246 OA
ATOM    158  OD1 ASP A  11      10.024  -0.890  -0.561  0.00  0.00    -0.246 OA
ENDBRANCH 155 156
ENDBRANCH  86 155
ENDBRANCH  83  86
ENDBRANCH   1  82
BRANCH   1 159
ATOM    159  CB  THR A  10      11.863   4.172   3.707  0.00  0.00    +0.137 C 
ATOM    160  CG2 THR A  10      13.224   4.182   3.013  0.00  0.00    +0.034 C 
BRANCH 159 161
ATOM    161  OG1 THR A  10      11.923   4.998   4.875  0.00  0.00    -0.382 OA
ATOM    162  HG1 THR A  10      12.633   4.664   5.478  0.00  0.00    +0.210 HD
ENDBRANCH 159 161
ENDBRANCH   1 159
TORSDOF 66
REMARK  Name = ../refined-set-2016/2amt/2amt_pocket.pdb
REMARK  200 active torsions:
REMARK  status: ('A' for Active; 'I' for Inactive)
REMARK    1  A    between atoms: _1  and  _3
REMARK    2  A    between atoms: _3  and  _4
REMARK    3  A    between atoms: _3  and  _6
REMARK    4  A    between atoms: _6  and  _7
REMARK    5  A    between atoms: _13  and  _15
REMARK    6  A    between atoms: _24  and  _27
REMARK    7  A    between atoms: _32  and  _33
REMARK    8  A    between atoms: _41  and  _43
REMARK    9  A    between atoms: _43  and  _44
REMARK   10  A    between atoms: _47  and  _49
REMARK   11  A    between atoms: _49  and  _50
REMARK   12  A    between atoms: _49  and  _52
REMARK   13  A    between atoms: _52  and  _53
REMARK   14  A    between atoms: _56  and  _58
REMARK   15  A    between atoms: _58  and  _59
REMARK   16  A    between atoms: _62  and  _64
REMARK   17  A    between atoms: _64  and  _65
REMARK   18  A    between atoms: _64  and  _67
REMARK   19  A    between atoms: _67  and  _68
REMARK   20  A    between atoms: _73  and  _75
REMARK   21  A    between atoms: _75  and  _76
REMARK   22  A    between atoms: _75  and  _78
REMARK   23  A    between atoms: _78  and  _79
REMARK   24  A    between atoms: _81  and  _83
REMARK   25  A    between atoms: _83  and  _84
REMARK   26  A    between atoms: _83  and  _86
REMARK   27  A    between atoms: _86  and  _87
REMARK   28  A    between atoms: _90  and  _92
REMARK   29  A    between atoms: _92  and  _93
REMARK   30  A    between atoms: _95  and  _97
REMARK   31  A    between atoms: _97  and  _98
REMARK   32  A    between atoms: _97  and  _100
REMARK   33  A    between atoms: _100  and  _101
REMARK   34  A    between atoms: _104  and  _106
REMARK   35  A    between atoms: _106  and  _107
REMARK   36  A    between atoms: _106  and  _109
REMARK   37  A    between atoms: _112  and  _114
REMARK   38  A    between atoms: _114  and  _115
REMARK   39  A    between atoms: _114  and  _117
REMARK   40  A    between atoms: _117  and  _118
REMARK   41  A    between atoms: _119  and  ZN_502
REMARK   42  A    between atoms: _123  and  _125
REMARK   43  A    between atoms: _125  and  _126
REMARK   44  A    between atoms: _129  and  _131
REMARK   45  A    between atoms: _131  and  _132
REMARK   46  A    between atoms: _131  and  _134
REMARK   47  A    between atoms: _134  and  _135
REMARK   48  A    between atoms: _138  and  _140
REMARK   49  A    between atoms: _140  and  _141
REMARK   50  A    between atoms: _143  and  _145
REMARK   51  A    between atoms: _145  and  _146
REMARK   52  A    between atoms: _145  and  _148
REMARK   53  A    between atoms: _148  and  _149
REMARK   54  A    between atoms: _152  and  _154
REMARK   55  A    between atoms: _154  and  _155
REMARK   56  A    between atoms: _154  and  _157
REMARK   57  A    between atoms: _157  and  _158
REMARK   58  A    between atoms: _161  and  _163
REMARK   59  A    between atoms: _163  and  _164
REMARK   60  A    between atoms: _166  and  _168
REMARK   61  A    between atoms: _168  and  _169
REMARK   62  A    between atoms: _168  and  _171
REMARK   63  A    between atoms: _171  and  _172
REMARK   64  A    between atoms: _172  and  _173
REMARK   65  A    between atoms: _173  and  _174
REMARK   66  A    between atoms: _174  and  _175
REMARK   67  A    between atoms: _179  and  _181
REMARK   68  A    between atoms: _181  and  _182
REMARK   69  A    between atoms: _181  and  _184
REMARK   70  A    between atoms: _184  and  _185
REMARK   71  A    between atoms: _188  and  _190
REMARK   72  A    between atoms: _190  and  _191
REMARK   73  A    between atoms: _190  and  _193
REMARK   74  A    between atoms: _193  and  _194
REMARK   75  A    between atoms: _201  and  _202
REMARK   76  A    between atoms: _207  and  _209
REMARK   77  A    between atoms: _209  and  _210
REMARK   78  A    between atoms: _209  and  _212
REMARK   79  A    between atoms: _212  and  _213
REMARK   80  A    between atoms: _216  and  _218
REMARK   81  A    between atoms: _218  and  _219
REMARK   82  A    between atoms: _218  and  _221
REMARK   83  A    between atoms: _221  and  _222
REMARK   84  A    between atoms: _225  and  _227
REMARK   85  A    between atoms: _227  and  _228
REMARK   86  A    between atoms: _227  and  _230
REMARK   87  A    between atoms: _230  and  _231
REMARK   88  A    between atoms: _235  and  _236
REMARK   89  A    between atoms: _241  and  _243
REMARK   90  A    between atoms: _243  and  _244
REMARK   91  A    between atoms: _247  and  _249
REMARK   92  A    between atoms: _249  and  _250
REMARK   93  A    between atoms: _249  and  _252
REMARK   94  A    between atoms: _252  and  _253
REMARK   95  A    between atoms: _259  and  _261
REMARK   96  A    between atoms: _261  and  _262
REMARK   97  A    between atoms: _261  and  _264
REMARK   98  A    between atoms: _264  and  _265
REMARK   99  A    between atoms: _265  and  _266
REMARK  100  A    between atoms: _266  and  _267
REMARK  101  A    between atoms: _267  and  _268
REMARK  102  A    between atoms: _272  and  _274
REMARK  103  A    between atoms: _274  and  _275
REMARK  104  A    between atoms: _277  and  _279
REMARK  105  A    between atoms: _279  and  _280
REMARK  106  A    between atoms: _283  and  _285
REMARK  107  A    between atoms: _285  and  _286
REMARK  108  A    between atoms: _285  and  _288
REMARK  109  A    between atoms: _288  and  _289
REMARK  110  A    between atoms: _292  and  _294
REMARK  111  A    between atoms: _294  and  _295
REMARK  112  A    between atoms: _294  and  _297
REMARK  113  A    between atoms: _297  and  _298
REMARK  114  A    between atoms: _300  and  _302
REMARK  115  A    between atoms: _302  and  _303
REMARK  116  A    between atoms: _302  and  _305
REMARK  117  A    between atoms: _305  and  _306
REMARK  118  A    between atoms: _309  and  _311
REMARK  119  A    between atoms: _311  and  _312
REMARK  120  A    between atoms: _311  and  _314
REMARK  121  A    between atoms: _314  and  _315
REMARK  122  A    between atoms: _318  and  _320
REMARK  123  A    between atoms: _320  and  _321
REMARK  124  A    between atoms: _320  and  _323
REMARK  125  A    between atoms: _323  and  _324
REMARK  126  A    between atoms: _327  and  _329
REMARK  127  A    between atoms: _329  and  _330
REMARK  128  A    between atoms: _333  and  _335
REMARK  129  A    between atoms: _335  and  _336
REMARK  130  A    between atoms: _335  and  _338
REMARK  131  A    between atoms: _338  and  _339
REMARK  132  A    between atoms: _339  and  _340
REMARK  133  A    between atoms: _345  and  _347
REMARK  134  A    between atoms: _347  and  _348
REMARK  135  A    between atoms: _352  and  _353
REMARK  136  A    between atoms: _358  and  _360
REMARK  137  A    between atoms: _360  and  _361
REMARK  138  A    between atoms: _360  and  _363
REMARK  139  A    between atoms: _363  and  _364
REMARK  140  A    between atoms: _364  and  _365
REMARK  141  A    between atoms: _365  and  _366
REMARK  142  A    between atoms: _366  and  _367
REMARK  143  A    between atoms: _371  and  _373
REMARK  144  A    between atoms: _373  and  _374
REMARK  145  A    between atoms: _373  and  _376
REMARK  146  A    between atoms: _376  and  _377
REMARK  147  A    between atoms: _377  and  _378
REMARK  148  A    between atoms: _380  and  _382
REMARK  149  A    between atoms: _382  and  _383
REMARK  150  A    between atoms: _382  and  _385
REMARK  151  A    between atoms: _385  and  _386
REMARK  152  A    between atoms: _390  and  _391
REMARK  153  A    between atoms: _396  and  _398
REMARK  154  A    between atoms: _398  and  _399
REMARK  155  A    between atoms: _398  and  _401
REMARK  156  A    between atoms: _401  and  _402
REMARK  157  A    between atoms: _407  and  _409
REMARK  158  A    between atoms: _409  and  _410
REMARK  159  A    between atoms: _409  and  _412
REMARK  160  A    between atoms: _412  and  _413
REMARK  161  A    between atoms: _416  and  _418
REMARK  162  A    between atoms: _418  and  _419
REMARK  163  A    between atoms: _418  and  _421
REMARK  164  A    between atoms: _424  and  _426
REMARK  165  A    between atoms: _426  and  _427
REMARK  166  A    between atoms: _426  and  _429
REMARK  167  A    between atoms: _429  and  _430
REMARK  168  A    between atoms: _430  and  _431
REMARK  169  A    between atoms: _431  and  _432
REMARK  170  A    between atoms: _432  and  _433
REMARK  171  A    between atoms: _437  and  _439
REMARK  172  A    between atoms: _439  and  _440
REMARK  173  A    between atoms: _443  and  _445
REMARK  174  A    between atoms: _445  and  _446
REMARK  175  A    between atoms: _445  and  _448
REMARK  176  A    between atoms: _448  and  _449
REMARK  177  A    between atoms: _452  and  _454
REMARK  178  A    between atoms: _454  and  _455
REMARK  179  A    between atoms: _454  and  _457
REMARK  180  A    between atoms: _457  and  _458
REMARK  181  A    between atoms: _461  and  _463
REMARK  182  A    between atoms: _463  and  _464
REMARK  183  A    between atoms: _463  and  _466
REMARK  184  A    between atoms: _466  and  _467
REMARK  185  A    between atoms: _470  and  _472
REMARK  186  A    between atoms: _472  and  _473
REMARK  187  A    between atoms: _472  and  _475
REMARK  188  A    between atoms: _475  and  _476
REMARK  189  A    between atoms: _476  and  _477
REMARK  190  A    between atoms: _480  and  _482
REMARK  191  A    between atoms: _482  and  _483
REMARK  192  A    between atoms: _482  and  _485
REMARK  193  A    between atoms: _485  and  _486
REMARK  194  A    between atoms: _486  and  _487
REMARK  195  A    between atoms: _487  and  _488
REMARK  196  A    between atoms: _488  and  _489
REMARK  197  A    between atoms: _493  and  _495
REMARK  198  A    between atoms: _495  and  _496
REMARK  199  A    between atoms: _495  and  _498
REMARK  200  A    between atoms: _498  and  _499
REMARK                            x       y       z     vdW  Elec       q    Type
REMARK                         _______ _______ _______ _____ _____    ______ ____
ROOT
ATOM      1  CA  LEU A   1      -2.783  -2.572  -0.156  0.00  0.00    +0.133 C 
ENDROOT
BRANCH   1   2
ATOM      2  N   LEU A   1      -3.374  -2.439  -1.487  0.00  0.00    -0.239 NA
ATOM      3  H   LEU A   1      -3.837  -1.543  -1.741  0.00  0.00    +0.142 HD
ENDBRANCH   1   2
BRANCH   1   4
ATOM      4  C   LEU A   1      -3.537  -3.593   0.690  0.00  0.00    +0.224 C 
ATOM      5  O   LEU A   1      -2.926  -4.324   1.469  0.00  0.00    -0.287 OA
ENDBRANCH   1   4
BRANCH   1   6
ATOM      6  CB  LEU A   1      -2.750  -1.221   0.566  0.00  0.00    +0.025 C 
BRANCH   6   7
ATOM      7  CG  LEU A   1      -1.907  -0.085  -0.024  0.00  0.00    +0.002 C 
ATOM      8  CD2 LEU A   1      -2.305   1.237   0.610  0.00  0.00    +0.000 C 
ATOM      9  CD1 LEU A   1      -0.408  -0.337   0.134  0.00  0.00    +0.000 C 
ENDBRANCH   6   7
ENDBRANCH   1   6
TORSDOF 4
REMARK  Name = ../refined-set-2016/2amt/2amt_pocket.pdb
REMARK  200 active torsions:
REMARK  status: ('A' for Active; 'I' for Inactive)
REMARK    1  A    between atoms: _1  and  _3
REMARK    2  A    between atoms: _3  and  _4
REMARK    3  A    between atoms: _3  and  _6
REMARK    4  A    between atoms: _6  and  _7
REMARK    5  A    between atoms: _13  and  _15
REMARK    6  A    between atoms: _24  and  _27
REMARK    7  A    between atoms: _32  and  _33
REMARK    8  A    between atoms: _41  and  _43
REMARK    9  A    between atoms: _43  and  _44
REMARK   10  A    between atoms: _47  and  _49
REMARK   11  A    between atoms: _49  and  _50
REMARK   12  A    between atoms: _49  and  _52
REMARK   13  A    between atoms: _52  and  _53
REMARK   14  A    between atoms: _56  and  _58
REMARK   15  A    between atoms: _58  and  _59
REMARK   16  A    between atoms: _62  and  _64
REMARK   17  A    between atoms: _64  and  _65
REMARK   18  A    between atoms: _64  and  _67
REMARK   19  A    between atoms: _67  and  _68
REMARK   20  A    between atoms: _73  and  _75
REMARK   21  A    between atoms: _75  and  _76
REMARK   22  A    between atoms: _75  and  _78
REMARK   23  A    between atoms: _78  and  _79
REMARK   24  A    between atoms: _81  and  _83
REMARK   25  A    between atoms: _83  and  _84
REMARK   26  A    between atoms: _83  and  _86
REMARK   27  A    between atoms: _86  and  _87
REMARK   28  A    between atoms: _90  and  _92
REMARK   29  A    between atoms: _92  and  _93
REMARK   30  A    between atoms: _95  and  _97
REMARK   31  A    between atoms: _97  and  _98
REMARK   32  A    between atoms: _97  and  _100
REMARK   33  A    between atoms: _100  and  _101
REMARK   34  A    between atoms: _104  and  _106
REMARK   35  A    between atoms: _106  and  _107
REMARK   36  A    between atoms: _106  and  _109
REMARK   37  A    between atoms: _112  and  _114
REMARK   38  A    between atoms: _114  and  _115
REMARK   39  A    between atoms: _114  and  _117
REMARK   40  A    between atoms: _117  and  _118
REMARK   41  A    between atoms: _119  and  ZN_502
REMARK   42  A    between atoms: _123  and  _125
REMARK   43  A    between atoms: _125  and  _126
REMARK   44  A    between atoms: _129  and  _131
REMARK   45  A    between atoms: _131  and  _132
REMARK   46  A    between atoms: _131  and  _134
REMARK   47  A    between atoms: _134  and  _135
REMARK   48  A    between atoms: _138  and  _140
REMARK   49  A    between atoms: _140  and  _141
REMARK   50  A    between atoms: _143  and  _145
REMARK   51  A    between atoms: _145  and  _146
REMARK   52  A    between atoms: _145  and  _148
REMARK   53  A    between atoms: _148  and  _149
REMARK   54  A    between atoms: _152  and  _154
REMARK   55  A    between atoms: _154  and  _155
REMARK   56  A    between atoms: _154  and  _157
REMARK   57  A    between atoms: _157  and  _158
REMARK   58  A    between atoms: _161  and  _163
REMARK   59  A    between atoms: _163  and  _164
REMARK   60  A    between atoms: _166  and  _168
REMARK   61  A    between atoms: _168  and  _169
REMARK   62  A    between atoms: _168  and  _171
REMARK   63  A    between atoms: _171  and  _172
REMARK   64  A    between atoms: _172  and  _173
REMARK   65  A    between atoms: _173  and  _174
REMARK   66  A    between atoms: _174  and  _175
REMARK   67  A    between atoms: _179  and  _181
REMARK   68  A    between atoms: _181  and  _182
REMARK   69  A    between atoms: _181  and  _184
REMARK   70  A    between atoms: _184  and  _185
REMARK   71  A    between atoms: _188  and  _190
REMARK   72  A    between atoms: _190  and  _191
REMARK   73  A    between atoms: _190  and  _193
REMARK   74  A    between atoms: _193  and  _194
REMARK   75  A    between atoms: _201  and  _202
REMARK   76  A    between atoms: _207  and  _209
REMARK   77  A    between atoms: _209  and  _210
REMARK   78  A    between atoms: _209  and  _212
REMARK   79  A    between atoms: _212  and  _213
REMARK   80  A    between atoms: _216  and  _218
REMARK   81  A    between atoms: _218  and  _219
REMARK   82  A    between atoms: _218  and  _221
REMARK   83  A    between atoms: _221  and  _222
REMARK   84  A    between atoms: _225  and  _227
REMARK   85  A    between atoms: _227  and  _228
REMARK   86  A    between atoms: _227  and  _230
REMARK   87  A    between atoms: _230  and  _231
REMARK   88  A    between atoms: _235  and  _236
REMARK   89  A    between atoms: _241  and  _243
REMARK   90  A    between atoms: _243  and  _244
REMARK   91  A    between atoms: _247  and  _249
REMARK   92  A    between atoms: _249  and  _250
REMARK   93  A    between atoms: _249  and  _252
REMARK   94  A    between atoms: _252  and  _253
REMARK   95  A    between atoms: _259  and  _261
REMARK   96  A    between atoms: _261  and  _262
REMARK   97  A    between atoms: _261  and  _264
REMARK   98  A    between atoms: _264  and  _265
REMARK   99  A    between atoms: _265  and  _266
REMARK  100  A    between atoms: _266  and  _267
REMARK  101  A    between atoms: _267  and  _268
REMARK  102  A    between atoms: _272  and  _274
REMARK  103  A    between atoms: _274  and  _275
REMARK  104  A    between atoms: _277  and  _279
REMARK  105  A    between atoms: _279  and  _280
REMARK  106  A    between atoms: _283  and  _285
REMARK  107  A    between atoms: _285  and  _286
REMARK  108  A    between atoms: _285  and  _288
REMARK  109  A    between atoms: _288  and  _289
REMARK  110  A    between atoms: _292  and  _294
REMARK  111  A    between atoms: _294  and  _295
REMARK  112  A    between atoms: _294  and  _297
REMARK  113  A    between atoms: _297  and  _298
REMARK  114  A    between atoms: _300  and  _302
REMARK  115  A    between atoms: _302  and  _303
REMARK  116  A    between atoms: _302  and  _305
REMARK  117  A    between atoms: _305  and  _306
REMARK  118  A    between atoms: _309  and  _311
REMARK  119  A    between atoms: _311  and  _312
REMARK  120  A    between atoms: _311  and  _314
REMARK  121  A    between atoms: _314  and  _315
REMARK  122  A    between atoms: _318  and  _320
REMARK  123  A    between atoms: _320  and  _321
REMARK  124  A    between atoms: _320  and  _323
REMARK  125  A    between atoms: _323  and  _324
REMARK  126  A    between atoms: _327  and  _329
REMARK  127  A    between atoms: _329  and  _330
REMARK  128  A    between atoms: _333  and  _335
REMARK  129  A    between atoms: _335  and  _336
REMARK  130  A    between atoms: _335  and  _338
REMARK  131  A    between atoms: _338  and  _339
REMARK  132  A    between atoms: _339  and  _340
REMARK  133  A    between atoms: _345  and  _347
REMARK  134  A    between atoms: _347  and  _348
REMARK  135  A    between atoms: _352  and  _353
REMARK  136  A    between atoms: _358  and  _360
REMARK  137  A    between atoms: _360  and  _361
REMARK  138  A    between atoms: _360  and  _363
REMARK  139  A    between atoms: _363  and  _364
REMARK  140  A    between atoms: _364  and  _365
REMARK  141  A    between atoms: _365  and  _366
REMARK  142  A    between atoms: _366  and  _367
REMARK  143  A    between atoms: _371  and  _373
REMARK  144  A    between atoms: _373  and  _374
REMARK  145  A    between atoms: _373  and  _376
REMARK  146  A    between atoms: _376  and  _377
REMARK  147  A    between atoms: _377  and  _378
REMARK  148  A    between atoms: _380  and  _382
REMARK  149  A    between atoms: _382  and  _383
REMARK  150  A    between atoms: _382  and  _385
REMARK  151  A    between atoms: _385  and  _386
REMARK  152  A    between atoms: _390  and  _391
REMARK  153  A    between atoms: _396  and  _398
REMARK  154  A    between atoms: _398  and  _399
REMARK  155  A    between atoms: _398  and  _401
REMARK  156  A    between atoms: _401  and  _402
REMARK  157  A    between atoms: _407  and  _409
REMARK  158  A    between atoms: _409  and  _410
REMARK  159  A    between atoms: _409  and  _412
REMARK  160  A    between atoms: _412  and  _413
REMARK  161  A    between atoms: _416  and  _418
REMARK  162  A    between atoms: _418  and  _419
REMARK  163  A    between atoms: _418  and  _421
REMARK  164  A    between atoms: _424  and  _426
REMARK  165  A    between atoms: _426  and  _427
REMARK  166  A    between atoms: _426  and  _429
REMARK  167  A    between atoms: _429  and  _430
REMARK  168  A    between atoms: _430  and  _431
REMARK  169  A    between atoms: _431  and  _432
REMARK  170  A    between atoms: _432  and  _433
REMARK  171  A    between atoms: _437  and  _439
REMARK  172  A    between atoms: _439  and  _440
REMARK  173  A    between atoms: _443  and  _445
REMARK  174  A    between atoms: _445  and  _446
REMARK  175  A    between atoms: _445  and  _448
REMARK  176  A    between atoms: _448  and  _449
REMARK  177  A    between atoms: _452  and  _454
REMARK  178  A    between atoms: _454  and  _455
REMARK  179  A    between atoms: _454  and  _457
REMARK  180  A    between atoms: _457  and  _458
REMARK  181  A    between atoms: _461  and  _463
REMARK  182  A    between atoms: _463  and  _464
REMARK  183  A    between atoms: _463  and  _466
REMARK  184  A    between atoms: _466  and  _467
REMARK  185  A    between atoms: _470  and  _472
REMARK  186  A    between atoms: _472  and  _473
REMARK  187  A    between atoms: _472  and  _475
REMARK  188  A    between atoms: _475  and  _476
REMARK  189  A    between atoms: _476  and  _477
REMARK  190  A    between atoms: _480  and  _482
REMARK  191  A    between atoms: _482  and  _483
REMARK  192  A    between atoms: _482  and  _485
REMARK  193  A    between atoms: _485  and  _486
REMARK  194  A    between atoms: _486  and  _487
REMARK  195  A    between atoms: _487  and  _488
REMARK  196  A    between atoms: _488  and  _489
REMARK  197  A    between atoms: _493  and  _495
REMARK  198  A    between atoms: _495  and  _496
REMARK  199  A    between atoms: _495  and  _498
REMARK  200  A    between atoms: _498  and  _499
REMARK                            x       y       z     vdW  Elec       q    Type
REMARK                         _______ _______ _______ _____ _____    ______ ____
ROOT
ATOM      1  CA  LYS A   7       6.474   8.097  17.709  0.00  0.00    +0.149 C 
ENDROOT
BRANCH   1   2
ATOM      2  C   LYS A   7       6.494   6.857  18.601  0.00  0.00    +0.241 C 
ATOM      3  O   LYS A   7       7.327   6.748  19.501  0.00  0.00    -0.273 OA
ATOM      4  N   MET A   8       5.561   5.942  18.360  0.00  0.00    -0.297 N 
ATOM      5  H   MET A   8       4.939   6.062  17.535  0.00  0.00    +0.150 HD
BRANCH   4   6
ATOM      6  CA  MET A   8       5.381   4.771  19.219  0.00  0.00    +0.149 C 
BRANCH   6   7
ATOM      7  C   MET A   8       6.106   3.544  18.688  0.00  0.00    +0.241 C 
ATOM      8  O   MET A   8       6.458   2.646  19.456  0.00  0.00    -0.273 OA
ATOM      9  N   LEU A   9       6.330   3.526  17.375  0.00  0.00    -0.297 N 
ATOM     10  H   LEU A   9       6.209   4.410  16.840  0.00  0.00    +0.150 HD
BRANCH   9  11
ATOM     11  CA  LEU A   9       6.740   2.318  16.645  0.00  0.00    +0.149 C 
BRANCH  11  12
ATOM     12  C   LEU A   9       7.930   1.533  17.224  0.00  0.00    +0.244 C 
ATOM     13  N   PRO A  10       9.073   2.207  17.483  0.00  0.00    -0.272 N 
ATOM     14  CA  PRO A  10      10.240   1.499  18.023  0.00  0.00    +0.152 C 
ATOM     15  CB  PRO A  10      11.323   2.583  18.057  0.00  0.00    +0.031 C 
ATOM     16  CG  PRO A  10      10.855   3.639  17.124  0.00  0.00    +0.024 C 
ATOM     17  CD  PRO A  10       9.374   3.635  17.258  0.00  0.00    +0.094 C 
ATOM     18  O   LEU A   9       7.812   0.322  17.425  0.00  0.00    -0.273 OA
BRANCH  14  19
ATOM     19  C   PRO A  10      10.028   0.951  19.434  0.00  0.00    +0.241 C 
ATOM     20  N   HIS A  11       9.007   1.457  20.118  0.00  0.00    -0.297 N 
ATOM     21  H   HIS A  11       8.367   2.125  19.642  0.00  0.00    +0.150 HD
ATOM     22  O   PRO A  10      10.782   0.083  19.880  0.00  0.00    -0.273 OA
BRANCH  20  23
ATOM     23  CA  HIS A  11       8.750   1.111  21.512  0.00  0.00    +0.155 C 
BRANCH  23  24
ATOM     24  C   HIS A  11       7.699   0.013  21.639  0.00  0.00    +0.241 C 
ATOM     25  O   HIS A  11       7.501  -0.548  22.719  0.00  0.00    -0.273 OA
ATOM     26  N   ILE A  12       7.037  -0.289  20.523  0.00  0.00    -0.298 N 
ATOM     27  H   ILE A  12       7.289   0.211  19.646  0.00  0.00    +0.150 HD
BRANCH  26  28
ATOM     28  CA  ILE A  12       5.971  -1.292  20.473  0.00  0.00    +0.137 C 
BRANCH  28  29
ATOM     29  CB  ILE A  12       5.161  -1.202  19.145  0.00  0.00    +0.026 C 
ATOM     30  CG2 ILE A  12       4.354  -2.479  18.897  0.00  0.00    +0.002 C 
BRANCH  29  31
ATOM     31  CG1 ILE A  12       4.249   0.031  19.173  0.00  0.00    +0.002 C 
ATOM     32  CD1 ILE A  12       3.629   0.396  17.837  0.00  0.00    +0.000 C 
ENDBRANCH  29  31
ENDBRANCH  28  29
BRANCH  28  33
ATOM     33  C   ILE A  12       6.454  -2.727  20.767  0.00  0.00    +0.227 C 
ATOM     34  O   ILE A  12       5.807  -3.437  21.543  0.00  0.00    -0.286 OA
ENDBRANCH  28  33
ENDBRANCH  26  28
ENDBRANCH  23  24
BRANCH  23  35
ATOM     35  CB  HIS A  11       8.320   2.362  22.285  0.00  0.00    +0.076 C 
BRANCH  35  36
ATOM     36  CG  HIS A  11       9.114   3.585  21.940  0.00  0.00    +0.082 A 
ATOM     37  ND1 HIS A  11      10.438   3.738  22.294  0.00  0.00    -0.227 NA
ATOM     38  CE1 HIS A  11      10.877   4.904  21.855  0.00  0.00    +0.199 A 
ATOM     39  NE2 HIS A  11       9.886   5.513  21.228  0.00  0.00    -0.221 NA
ATOM     40  CD2 HIS A  11       8.773   4.708  21.266  0.00  0.00    +0.115 A 
ENDBRANCH  35  36
ENDBRANCH  23  35
ENDBRANCH  20  23
ENDBRANCH  14  19
ENDBRANCH  11  12
BRANCH  11  41
ATOM     41  CB  LEU A   9       6.963   2.630  15.156  0.00  0.00    +0.029 C 
BRANCH  41  42
ATOM     42  CG  LEU A   9       7.266   1.476  14.189  0.00  0.00    +0.002 C 
ATOM     43  CD2 LEU A   9       6.214   0.364  14.256  0.00  0.00    +0.000 C 
ATOM     44  CD1 LEU A   9       7.387   2.009  12.769  0.00  0.00    +0.000 C 
ENDBRANCH  41  42
ENDBRANCH  11  41
ENDBRANCH   9  11
ENDBRANCH   6   7
BRANCH   6  45
ATOM     45  CB  MET A   8       3.891   4.442  19.369  0.00  0.00    +0.041 C 
BRANCH  45  46
ATOM     46  CG  MET A   8       3.063   5.536  20.018  0.00  0.00    +0.060 C 
BRANCH  46  47
ATOM     47  SD  MET A   8       3.521   5.795  21.735  0.00  0.00    -0.139 S 
ATOM     48  CE  MET A   8       2.534   7.235  22.137  0.00  0.00    +0.069 C 
ENDBRANCH  46  47
ENDBRANCH  45  46
ENDBRANCH   6  45
ENDBRANCH   4   6
ENDBRANCH   1   2
BRANCH   1  51
ATOM     49  C   PRO A   6       5.425   9.603  19.325  0.00  0.00    +0.241 C 
ATOM     50  O   PRO A   6       4.342   9.005  19.298  0.00  0.00    -0.273 OA
ATOM     51  N   LYS A   7       6.466   9.279  18.560  0.00  0.00    -0.297 N 
ATOM     52  H   LYS A   7       7.305   9.893  18.571  0.00  0.00    +0.150 HD
BRANCH  49  59
ATOM     53  C   ALA A   5       3.329  11.819  20.545  0.00  0.00    +0.244 C 
ATOM     54  O   ALA A   5       2.335  12.009  21.248  0.00  0.00    -0.273 OA
ATOM     55  N   PRO A   6       4.410  11.155  20.995  0.00  0.00    -0.272 N 
ATOM     56  CD  PRO A   6       4.477  10.718  22.403  0.00  0.00    +0.094 C 
ATOM     57  CG  PRO A   6       5.770   9.958  22.479  0.00  0.00    +0.024 C 
ATOM     58  CB  PRO A   6       6.615  10.451  21.368  0.00  0.00    +0.031 C 
ATOM     59  CA  PRO A   6       5.623  10.799  20.255  0.00  0.00    +0.152 C 
BRANCH  53  60
ATOM     60  CA  ALA A   5       3.356  12.335  19.104  0.00  0.00    +0.149 C 
ATOM     61  CB  ALA A   5       4.062  13.689  19.026  0.00  0.00    +0.031 C 
BRANCH  60  63
ATOM     62  C   GLN A   4       1.636  12.391  17.350  0.00  0.00    +0.241 C 
ATOM     63  N   ALA A   5       1.987  12.452  18.632  0.00  0.00    -0.297 N 
ATOM     64  H   ALA A   5       1.237  12.592  19.338  0.00  0.00    +0.150 HD
ATOM     65  O   GLN A   4       2.436  12.244  16.425  0.00  0.00    -0.273 OA
BRANCH  62  66
ATOM     66  CA  GLN A   4       0.142  12.508  17.085  0.00  0.00    +0.149 C 
BRANCH  66  68
ATOM     67  C   ALA A   3      -0.574  10.415  18.113  0.00  0.00    +0.241 C 
ATOM     68  N   GLN A   4      -0.582  11.745  18.093  0.00  0.00    -0.297 N 
ATOM     69  H   GLN A   4      -1.122  12.256  18.820  0.00  0.00    +0.150 HD
ATOM     70  O   ALA A   3      -0.050   9.725  17.234  0.00  0.00    -0.273 OA
BRANCH  67  71
ATOM     71  CA  ALA A   3      -1.264   9.766  19.304  0.00  0.00    +0.149 C 
ATOM     72  CB  ALA A   3      -0.225   9.270  20.302  0.00  0.00    +0.031 C 
BRANCH  71  75
ATOM     73  C   ILE A   2      -3.205   8.287  19.526  0.00  0.00    +0.241 C 
ATOM     74  O   ILE A   2      -3.620   8.854  20.537  0.00  0.00    -0.273 OA
ATOM     75  N   ALA A   3      -2.114   8.666  18.865  0.00  0.00    -0.297 N 
ATOM     76  H   ALA A   3      -1.856   8.155  17.997  0.00  0.00    +0.150 HD
BRANCH  73  77
ATOM     77  CA  ILE A   2      -3.917   7.064  18.959  0.00  0.00    +0.148 C 
BRANCH  77  79
ATOM     78  C   ILE A   1      -2.788   4.947  19.328  0.00  0.00    +0.238 C 
ATOM     79  N   ILE A   2      -3.587   5.907  19.778  0.00  0.00    -0.297 N 
ATOM     80  H   ILE A   2      -3.985   5.831  20.736  0.00  0.00    +0.150 HD
ATOM     81  O   ILE A   1      -2.303   4.953  18.197  0.00  0.00    -0.274 OA
BRANCH  78  82
ATOM     82  CA  ILE A   1      -2.504   3.799  20.289  0.00  0.00    +0.145 C 
BRANCH  82  83
ATOM     83  N   ILE A   1      -2.909   2.548  19.657  0.00  0.00    -0.238 NA
ATOM     84  H   ILE A   1      -2.182   1.951  19.215  0.00  0.00    +0.142 HD
ENDBRANCH  82  83
BRANCH  82  85
ATOM     85  CB  ILE A   1      -1.002   3.802  20.668  0.00  0.00    +0.025 C 
ATOM     86  CG2 ILE A   1      -0.588   5.166  21.245  0.00  0.00    +0.002 C 
BRANCH  85  87
ATOM     87  CG1 ILE A   1      -0.687   2.675  21.657  0.00  0.00    +0.002 C 
ATOM     88  CD1 ILE A   1       0.770   2.252  21.659  0.00  0.00    +0.000 C 
ENDBRANCH  85  87
ENDBRANCH  82  85
ENDBRANCH  78  82
ENDBRANCH  77  79
BRANCH  77  89
ATOM     89  CB  ILE A   2      -5.443   7.285  18.855  0.00  0.00    +0.027 C 
ATOM     90  CG2 ILE A   2      -5.754   8.417  17.885  0.00  0.00    +0.002 C 
BRANCH  89  91
ATOM     91  CG1 ILE A   2      -6.142   5.993  18.412  0.00  0.00    +0.002 C 
ATOM     92  CD1 ILE A   2      -7.620   5.940  18.749  0.00  0.00    +0.000 C 
ENDBRANCH  89  91
ENDBRANCH  77  89
ENDBRANCH  73  77
ENDBRANCH  71  75
ENDBRANCH  67  71
ENDBRANCH  66  68
BRANCH  66  93
ATOM     93  CB  GLN A   4      -0.286  13.978  17.121  0.00  0.00    +0.039 C 
BRANCH  93  94
ATOM     94  CG  GLN A   4       0.059  14.767  15.865  0.00  0.00    +0.087 C 
BRANCH  94  95
ATOM     95  CD  GLN A   4      -0.649  14.241  14.630  0.00  0.00    +0.219 C 
ATOM     96  OE1 GLN A   4      -1.844  13.943  14.660  0.00  0.00    -0.275 OA
ATOM     97  NE2 GLN A   4       0.091  14.123  13.533  0.00  0.00    -0.329 N 
ATOM     98 HE21 GLN A   4       1.097  14.387  13.553  0.00  0.00    +0.145 HD
ATOM     99 HE22 GLN A   4      -0.336  13.767  12.654  0.00  0.00    +0.145 HD
ENDBRANCH  94  95
ENDBRANCH  93  94
ENDBRANCH  66  93
ENDBRANCH  62  66
ENDBRANCH  60  63
ENDBRANCH  53  60
ENDBRANCH  49  59
ENDBRANCH   1  51
BRANCH   1 100
ATOM    100  CB  LYS A   7       7.692   8.117  16.776  0.00  0.00    +0.029 C 
BRANCH 100 101
ATOM    101  CG  LYS A   7       7.572   7.226  15.539  0.00  0.00    +0.000 C 
BRANCH 101 102
ATOM    102  CD  LYS A   7       6.614   7.820  14.508  0.00  0.00    -0.024 C 
BRANCH 102 103
ATOM    103  CE  LYS A   7       6.507   6.950  13.263  0.00  0.00    -0.086 C 
BRANCH 103 104
ATOM    104  NZ  LYS A   7       7.702   7.062  12.386  0.00  0.00    +0.380 N 
ATOM    105  HZ1 LYS A   7       8.547   6.764  12.914  0.00  0.00    -0.089 HD
ATOM    106  HZ2 LYS A   7       7.814   8.049  12.079  0.00  0.00    -0.089 HD
ATOM    107  HZ3 LYS A   7       7.578   6.451  11.554  0.00  0.00    -0.089 HD
ENDBRANCH 103 104
ENDBRANCH 102 103
ENDBRANCH 101 102
ENDBRANCH 100 101
ENDBRANCH   1 100
TORSDOF 43
REMARK  Name = ../refined-set-2016/2amt/2amt_pocket.pdb
REMARK  200 active torsions:
REMARK  status: ('A' for Active; 'I' for Inactive)
REMARK    1  A    between atoms: _1  and  _3
REMARK    2  A    between atoms: _3  and  _4
REMARK    3  A    between atoms: _3  and  _6
REMARK    4  A    between atoms: _6  and  _7
REMARK    5  A    between atoms: _13  and  _15
REMARK    6  A    between atoms: _24  and  _27
REMARK    7  A    between atoms: _32  and  _33
REMARK    8  A    between atoms: _41  and  _43
REMARK    9  A    between atoms: _43  and  _44
REMARK   10  A    between atoms: _47  and  _49
REMARK   11  A    between atoms: _49  and  _50
REMARK   12  A    between atoms: _49  and  _52
REMARK   13  A    between atoms: _52  and  _53
REMARK   14  A    between atoms: _56  and  _58
REMARK   15  A    between atoms: _58  and  _59
REMARK   16  A    between atoms: _62  and  _64
REMARK   17  A    between atoms: _64  and  _65
REMARK   18  A    between atoms: _64  and  _67
REMARK   19  A    between atoms: _67  and  _68
REMARK   20  A    between atoms: _73  and  _75
REMARK   21  A    between atoms: _75  and  _76
REMARK   22  A    between atoms: _75  and  _78
REMARK   23  A    between atoms: _78  and  _79
REMARK   24  A    between atoms: _81  and  _83
REMARK   25  A    between atoms: _83  and  _84
REMARK   26  A    between atoms: _83  and  _86
REMARK   27  A    between atoms: _86  and  _87
REMARK   28  A    between atoms: _90  and  _92
REMARK   29  A    between atoms: _92  and  _93
REMARK   30  A    between atoms: _95  and  _97
REMARK   31  A    between atoms: _97  and  _98
REMARK   32  A    between atoms: _97  and  _100
REMARK   33  A    between atoms: _100  and  _101
REMARK   34  A    between atoms: _104  and  _106
REMARK   35  A    between atoms: _106  and  _107
REMARK   36  A    between atoms: _106  and  _109
REMARK   37  A    between atoms: _112  and  _114
REMARK   38  A    between atoms: _114  and  _115
REMARK   39  A    between atoms: _114  and  _117
REMARK   40  A    between atoms: _117  and  _118
REMARK   41  A    between atoms: _119  and  ZN_502
REMARK   42  A    between atoms: _123  and  _125
REMARK   43  A    between atoms: _125  and  _126
REMARK   44  A    between atoms: _129  and  _131
REMARK   45  A    between atoms: _131  and  _132
REMARK   46  A    between atoms: _131  and  _134
REMARK   47  A    between atoms: _134  and  _135
REMARK   48  A    between atoms: _138  and  _140
REMARK   49  A    between atoms: _140  and  _141
REMARK   50  A    between atoms: _143  and  _145
REMARK   51  A    between atoms: _145  and  _146
REMARK   52  A    between atoms: _145  and  _148
REMARK   53  A    between atoms: _148  and  _149
REMARK   54  A    between atoms: _152  and  _154
REMARK   55  A    between atoms: _154  and  _155
REMARK   56  A    between atoms: _154  and  _157
REMARK   57  A    between atoms: _157  and  _158
REMARK   58  A    between atoms: _161  and  _163
REMARK   59  A    between atoms: _163  and  _164
REMARK   60  A    between atoms: _166  and  _168
REMARK   61  A    between atoms: _168  and  _169
REMARK   62  A    between atoms: _168  and  _171
REMARK   63  A    between atoms: _171  and  _172
REMARK   64  A    between atoms: _172  and  _173
REMARK   65  A    between atoms: _173  and  _174
REMARK   66  A    between atoms: _174  and  _175
REMARK   67  A    between atoms: _179  and  _181
REMARK   68  A    between atoms: _181  and  _182
REMARK   69  A    between atoms: _181  and  _184
REMARK   70  A    between atoms: _184  and  _185
REMARK   71  A    between atoms: _188  and  _190
REMARK   72  A    between atoms: _190  and  _191
REMARK   73  A    between atoms: _190  and  _193
REMARK   74  A    between atoms: _193  and  _194
REMARK   75  A    between atoms: _201  and  _202
REMARK   76  A    between atoms: _207  and  _209
REMARK   77  A    between atoms: _209  and  _210
REMARK   78  A    between atoms: _209  and  _212
REMARK   79  A    between atoms: _212  and  _213
REMARK   80  A    between atoms: _216  and  _218
REMARK   81  A    between atoms: _218  and  _219
REMARK   82  A    between atoms: _218  and  _221
REMARK   83  A    between atoms: _221  and  _222
REMARK   84  A    between atoms: _225  and  _227
REMARK   85  A    between atoms: _227  and  _228
REMARK   86  A    between atoms: _227  and  _230
REMARK   87  A    between atoms: _230  and  _231
REMARK   88  A    between atoms: _235  and  _236
REMARK   89  A    between atoms: _241  and  _243
REMARK   90  A    between atoms: _243  and  _244
REMARK   91  A    between atoms: _247  and  _249
REMARK   92  A    between atoms: _249  and  _250
REMARK   93  A    between atoms: _249  and  _252
REMARK   94  A    between atoms: _252  and  _253
REMARK   95  A    between atoms: _259  and  _261
REMARK   96  A    between atoms: _261  and  _262
REMARK   97  A    between atoms: _261  and  _264
REMARK   98  A    between atoms: _264  and  _265
REMARK   99  A    between atoms: _265  and  _266
REMARK  100  A    between atoms: _266  and  _267
REMARK  101  A    between atoms: _267  and  _268
REMARK  102  A    between atoms: _272  and  _274
REMARK  103  A    between atoms: _274  and  _275
REMARK  104  A    between atoms: _277  and  _279
REMARK  105  A    between atoms: _279  and  _280
REMARK  106  A    between atoms: _283  and  _285
REMARK  107  A    between atoms: _285  and  _286
REMARK  108  A    between atoms: _285  and  _288
REMARK  109  A    between atoms: _288  and  _289
REMARK  110  A    between atoms: _292  and  _294
REMARK  111  A    between atoms: _294  and  _295
REMARK  112  A    between atoms: _294  and  _297
REMARK  113  A    between atoms: _297  and  _298
REMARK  114  A    between atoms: _300  and  _302
REMARK  115  A    between atoms: _302  and  _303
REMARK  116  A    between atoms: _302  and  _305
REMARK  117  A    between atoms: _305  and  _306
REMARK  118  A    between atoms: _309  and  _311
REMARK  119  A    between atoms: _311  and  _312
REMARK  120  A    between atoms: _311  and  _314
REMARK  121  A    between atoms: _314  and  _315
REMARK  122  A    between atoms: _318  and  _320
REMARK  123  A    between atoms: _320  and  _321
REMARK  124  A    between atoms: _320  and  _323
REMARK  125  A    between atoms: _323  and  _324
REMARK  126  A    between atoms: _327  and  _329
REMARK  127  A    between atoms: _329  and  _330
REMARK  128  A    between atoms: _333  and  _335
REMARK  129  A    between atoms: _335  and  _336
REMARK  130  A    between atoms: _335  and  _338
REMARK  131  A    between atoms: _338  and  _339
REMARK  132  A    between atoms: _339  and  _340
REMARK  133  A    between atoms: _345  and  _347
REMARK  134  A    between atoms: _347  and  _348
REMARK  135  A    between atoms: _352  and  _353
REMARK  136  A    between atoms: _358  and  _360
REMARK  137  A    between atoms: _360  and  _361
REMARK  138  A    between atoms: _360  and  _363
REMARK  139  A    between atoms: _363  and  _364
REMARK  140  A    between atoms: _364  and  _365
REMARK  141  A    between atoms: _365  and  _366
REMARK  142  A    between atoms: _366  and  _367
REMARK  143  A    between atoms: _371  and  _373
REMARK  144  A    between atoms: _373  and  _374
REMARK  145  A    between atoms: _373  and  _376
REMARK  146  A    between atoms: _376  and  _377
REMARK  147  A    between atoms: _377  and  _378
REMARK  148  A    between atoms: _380  and  _382
REMARK  149  A    between atoms: _382  and  _383
REMARK  150  A    between atoms: _382  and  _385
REMARK  151  A    between atoms: _385  and  _386
REMARK  152  A    between atoms: _390  and  _391
REMARK  153  A    between atoms: _396  and  _398
REMARK  154  A    between atoms: _398  and  _399
REMARK  155  A    between atoms: _398  and  _401
REMARK  156  A    between atoms: _401  and  _402
REMARK  157  A    between atoms: _407  and  _409
REMARK  158  A    between atoms: _409  and  _410
REMARK  159  A    between atoms: _409  and  _412
REMARK  160  A    between atoms: _412  and  _413
REMARK  161  A    between atoms: _416  and  _418
REMARK  162  A    between atoms: _418  and  _419
REMARK  163  A    between atoms: _418  and  _421
REMARK  164  A    between atoms: _424  and  _426
REMARK  165  A    between atoms: _426  and  _427
REMARK  166  A    between atoms: _426  and  _429
REMARK  167  A    between atoms: _429  and  _430
REMARK  168  A    between atoms: _430  and  _431
REMARK  169  A    between atoms: _431  and  _432
REMARK  170  A    between atoms: _432  and  _433
REMARK  171  A    between atoms: _437  and  _439
REMARK  172  A    between atoms: _439  and  _440
REMARK  173  A    between atoms: _443  and  _445
REMARK  174  A    between atoms: _445  and  _446
REMARK  175  A    between atoms: _445  and  _448
REMARK  176  A    between atoms: _448  and  _449
REMARK  177  A    between atoms: _452  and  _454
REMARK  178  A    between atoms: _454  and  _455
REMARK  179  A    between atoms: _454  and  _457
REMARK  180  A    between atoms: _457  and  _458
REMARK  181  A    between atoms: _461  and  _463
REMARK  182  A    between atoms: _463  and  _464
REMARK  183  A    between atoms: _463  and  _466
REMARK  184  A    between atoms: _466  and  _467
REMARK  185  A    between atoms: _470  and  _472
REMARK  186  A    between atoms: _472  and  _473
REMARK  187  A    between atoms: _472  and  _475
REMARK  188  A    between atoms: _475  and  _476
REMARK  189  A    between atoms: _476  and  _477
REMARK  190  A    between atoms: _480  and  _482
REMARK  191  A    between atoms: _482  and  _483
REMARK  192  A    between atoms: _482  and  _485
REMARK  193  A    between atoms: _485  and  _486
REMARK  194  A    between atoms: _486  and  _487
REMARK  195  A    between atoms: _487  and  _488
REMARK  196  A    between atoms: _488  and  _489
REMARK  197  A    between atoms: _493  and  _495
REMARK  198  A    between atoms: _495  and  _496
REMARK  199  A    between atoms: _495  and  _498
REMARK  200  A    between atoms: _498  and  _499
REMARK                            x       y       z     vdW  Elec       q    Type
REMARK                         _______ _______ _______ _____ _____    ______ ____
ROOT
ATOM      1  CA  THR A   5      -2.333   9.734  14.244  0.00  0.00    +0.176 C 
ENDROOT
BRANCH   1   2
ATOM      2  C   THR A   5      -3.758  10.035  13.803  0.00  0.00    +0.243 C 
ATOM      3  N   THR A   6      -4.258  11.201  14.198  0.00  0.00    -0.295 N 
ATOM      4  H   THR A   6      -3.727  11.771  14.887  0.00  0.00    +0.150 HD
ATOM      5  O   THR A   5      -4.394   9.220  13.128  0.00  0.00    -0.273 OA
BRANCH   3   6
ATOM      6  CA  THR A   6      -5.528  11.704  13.693  0.00  0.00    +0.176 C 
BRANCH   6   7
ATOM      7  C   THR A   6      -5.276  12.828  12.692  0.00  0.00    +0.243 C 
ATOM      8  O   THR A   6      -6.111  13.718  12.521  0.00  0.00    -0.273 OA
ATOM      9  N   GLU A   7      -4.114  12.768  12.038  0.00  0.00    -0.297 N 
ATOM     10  H   GLU A   7      -3.459  11.996  12.277  0.00  0.00    +0.150 HD
BRANCH   9  11
ATOM     11  CA  GLU A   7      -3.704  13.726  11.001  0.00  0.00    +0.149 C 
BRANCH  11  12
ATOM     12  C   GLU A   7      -3.820  15.182  11.460  0.00  0.00    +0.241 C 
ATOM     13  N   LYS A   8      -3.323  15.438  12.671  0.00  0.00    -0.298 N 
ATOM     14  H   LYS A   8      -2.883  14.651  13.189  0.00  0.00    +0.150 HD
ATOM     15  O   GLU A   7      -4.342  16.035  10.738  0.00  0.00    -0.273 OA
BRANCH  13  16
ATOM     16  CA  LYS A   8      -3.354  16.758  13.326  0.00  0.00    +0.137 C 
BRANCH  16  17
ATOM     17  C   LYS A   8      -4.763  17.304  13.625  0.00  0.00    +0.227 C 
ATOM     18  O   LYS A   8      -4.933  18.493  13.910  0.00  0.00    -0.286 OA
ENDBRANCH  16  17
BRANCH  16  19
ATOM     19  CB  LYS A   8      -2.479  17.781  12.582  0.00  0.00    +0.028 C 
BRANCH  19  20
ATOM     20  CG  LYS A   8      -0.982  17.587  12.828  0.00  0.00    -0.000 C 
BRANCH  20  21
ATOM     21  CD  LYS A   8      -0.156  18.798  12.395  0.00  0.00    -0.024 C 
BRANCH  21  22
ATOM     22  CE  LYS A   8       0.175  18.769  10.901  0.00  0.00    -0.086 C 
BRANCH  22  23
ATOM     23  NZ  LYS A   8       0.963  19.969  10.475  0.00  0.00    +0.380 N 
ATOM     24  HZ1 LYS A   8       1.857  20.001  11.005  0.00  0.00    -0.089 HD
ATOM     25  HZ2 LYS A   8       0.413  20.830  10.669  0.00  0.00    -0.089 HD
ATOM     26  HZ3 LYS A   8       1.164  19.906   9.457  0.00  0.00    -0.089 HD
ENDBRANCH  22  23
ENDBRANCH  21  22
ENDBRANCH  20  21
ENDBRANCH  19  20
ENDBRANCH  16  19
ENDBRANCH  13  16
ENDBRANCH  11  12
BRANCH  11  27
ATOM     27  CB  GLU A   7      -4.486  13.494   9.701  0.00  0.00    +0.041 C 
BRANCH  27  28
ATOM     28  CG  GLU A   7      -4.552  12.036   9.254  0.00  0.00    +0.116 C 
BRANCH  28  29
ATOM     29  CD  GLU A   7      -3.255  11.537   8.650  0.00  0.00    +0.365 C 
ATOM     30  OE2 GLU A   7      -2.531  10.776   9.327  0.00  0.00    -0.246 OA
ATOM     31  OE1 GLU A   7      -2.959  11.906   7.497  0.00  0.00    -0.246 OA
ENDBRANCH  28  29
ENDBRANCH  27  28
ENDBRANCH  11  27
ENDBRANCH   9  11
ENDBRANCH   6   7
BRANCH   6  32
ATOM     32  CB  THR A   6      -6.457  12.189  14.826  0.00  0.00    +0.137 C 
ATOM     33  CG2 THR A   6      -6.981  11.011  15.635  0.00  0.00    +0.034 C 
BRANCH  32  34
ATOM     34  OG1 THR A   6      -5.741  13.082  15.689  0.00  0.00    -0.382 OA
ATOM     35  HG1 THR A   6      -6.341  13.390  16.414  0.00  0.00    +0.210 HD
ENDBRANCH  32  34
ENDBRANCH   6  32
ENDBRANCH   3   6
ENDBRANCH   1   2
BRANCH   1  38
ATOM     36  C   THR A   4      -2.073   7.408  14.930  0.00  0.00    +0.243 C 
ATOM     37  O   THR A   4      -2.230   7.671  16.125  0.00  0.00    -0.273 OA
ATOM     38  N   THR A   5      -2.042   8.333  13.976  0.00  0.00    -0.295 N 
ATOM     39  H   THR A   5      -1.802   8.046  13.006  0.00  0.00    +0.150 HD
BRANCH  36  40
ATOM     40  CA  THR A   4      -1.876   5.968  14.466  0.00  0.00    +0.176 C 
BRANCH  40  42
ATOM     41  C   ALA A   3      -0.686   4.013  15.318  0.00  0.00    +0.241 C 
ATOM     42  N   THR A   4      -1.388   5.119  15.550  0.00  0.00    -0.295 N 
ATOM     43  H   THR A   4      -1.596   5.387  16.533  0.00  0.00    +0.150 HD
ATOM     44  O   ALA A   3      -0.489   3.565  14.186  0.00  0.00    -0.273 OA
BRANCH  41  45
ATOM     45  CA  ALA A   3      -0.136   3.297  16.545  0.00  0.00    +0.149 C 
ATOM     46  CB  ALA A   3       1.188   3.905  16.964  0.00  0.00    +0.031 C 
BRANCH  45  49
ATOM     47  C   LYS A   2      -0.472   0.941  17.103  0.00  0.00    +0.241 C 
ATOM     48  O   LYS A   2      -1.081   1.200  18.143  0.00  0.00    -0.273 OA
ATOM     49  N   ALA A   3       0.022   1.872  16.291  0.00  0.00    -0.297 N 
ATOM     50  H   ALA A   3       0.541   1.570  15.442  0.00  0.00    +0.150 HD
BRANCH  47  51
ATOM     51  CA  LYS A   2      -0.235  -0.505  16.680  0.00  0.00    +0.149 C 
BRANCH  51  53
ATOM     52  C   VAL A   1       0.349  -2.412  18.075  0.00  0.00    +0.238 C 
ATOM     53  N   LYS A   2      -0.472  -1.407  17.798  0.00  0.00    -0.297 N 
ATOM     54  H   LYS A   2      -1.309  -1.259  18.397  0.00  0.00    +0.150 HD
ATOM     55  O   VAL A   1       1.304  -2.723  17.359  0.00  0.00    -0.274 OA
BRANCH  52  56
ATOM     56  CA  VAL A   1       0.025  -3.205  19.332  0.00  0.00    +0.145 C 
BRANCH  56  57
ATOM     57  CB  VAL A   1       1.007  -2.845  20.480  0.00  0.00    +0.025 C 
ATOM     58  CG2 VAL A   1       0.756  -3.714  21.708  0.00  0.00    +0.002 C 
ATOM     59  CG1 VAL A   1       0.886  -1.370  20.852  0.00  0.00    +0.002 C 
ENDBRANCH  56  57
BRANCH  56  60
ATOM     60  N   VAL A   1       0.067  -4.616  18.996  0.00  0.00    -0.238 NA
ATOM     61  H   VAL A   1       0.915  -4.998  18.531  0.00  0.00    +0.142 HD
ENDBRANCH  56  60
ENDBRANCH  52  56
ENDBRANCH  51  53
BRANCH  51  62
ATOM     62  CB  LYS A   2      -1.099  -0.888  15.472  0.00  0.00    +0.029 C 
BRANCH  62  63
ATOM     63  CG  LYS A   2      -2.564  -0.487  15.566  0.00  0.00    +0.000 C 
BRANCH  63  64
ATOM     64  CD  LYS A   2      -3.402  -1.153  14.473  0.00  0.00    -0.024 C 
BRANCH  64  65
ATOM     65  CE  LYS A   2      -3.846  -2.559  14.878  0.00  0.00    -0.086 C 
BRANCH  65  66
ATOM     66  NZ  LYS A   2      -4.741  -2.532  16.071  0.00  0.00    +0.380 N 
ATOM     67  HZ1 LYS A   2      -4.235  -2.104  16.873  0.00  0.00    -0.089 HD
ATOM     68  HZ2 LYS A   2      -5.021  -3.503  16.315  0.00  0.00    -0.089 HD
ATOM     69  HZ3 LYS A   2      -5.589  -1.970  15.854  0.00  0.00    -0.089 HD
ENDBRANCH  65  66
ENDBRANCH  64  65
ENDBRANCH  63  64
ENDBRANCH  62  63
ENDBRANCH  51  62
ENDBRANCH  47  51
ENDBRANCH  45  49
ENDBRANCH  41  45
ENDBRANCH  40  42
BRANCH  40  70
ATOM     70  CB  THR A   4      -3.183   5.419  13.822  0.00  0.00    +0.137 C 
ATOM     71  CG2 THR A   4      -4.369   5.499  14.792  0.00  0.00    +0.034 C 
BRANCH  70  72
ATOM     72  OG1 THR A   4      -3.482   6.164  12.634  0.00  0.00    -0.382 OA
ATOM     73  HG1 THR A   4      -3.604   7.119  12.866  0.00  0.00    +0.210 HD
ENDBRANCH  70  72
ENDBRANCH  40  70
ENDBRANCH  36  40
ENDBRANCH   1  38
BRANCH   1  74
ATOM     74  CB  THR A   5      -1.360  10.691  13.502  0.00  0.00    +0.137 C 
ATOM     75  CG2 THR A   5       0.088  10.393  13.857  0.00  0.00    +0.034 C 
BRANCH  74  76
ATOM     76  OG1 THR A   5      -1.538  10.565  12.085  0.00  0.00    -0.382 OA
ATOM     77  HG1 THR A   5      -1.351   9.632  11.812  0.00  0.00    +0.210 HD
ENDBRANCH  74  76
ENDBRANCH   1  74
TORSDOF 36
REMARK  Name = ../refined-set-2016/2amt/2amt_pocket.pdb
REMARK  200 active torsions:
REMARK  status: ('A' for Active; 'I' for Inactive)
REMARK    1  A    between atoms: _1  and  _3
REMARK    2  A    between atoms: _3  and  _4
REMARK    3  A    between atoms: _3  and  _6
REMARK    4  A    between atoms: _6  and  _7
REMARK    5  A    between atoms: _13  and  _15
REMARK    6  A    between atoms: _24  and  _27
REMARK    7  A    between atoms: _32  and  _33
REMARK    8  A    between atoms: _41  and  _43
REMARK    9  A    between atoms: _43  and  _44
REMARK   10  A    between atoms: _47  and  _49
REMARK   11  A    between atoms: _49  and  _50
REMARK   12  A    between atoms: _49  and  _52
REMARK   13  A    between atoms: _52  and  _53
REMARK   14  A    between atoms: _56  and  _58
REMARK   15  A    between atoms: _58  and  _59
REMARK   16  A    between atoms: _62  and  _64
REMARK   17  A    between atoms: _64  and  _65
REMARK   18  A    between atoms: _64  and  _67
REMARK   19  A    between atoms: _67  and  _68
REMARK   20  A    between atoms: _73  and  _75
REMARK   21  A    between atoms: _75  and  _76
REMARK   22  A    between atoms: _75  and  _78
REMARK   23  A    between atoms: _78  and  _79
REMARK   24  A    between atoms: _81  and  _83
REMARK   25  A    between atoms: _83  and  _84
REMARK   26  A    between atoms: _83  and  _86
REMARK   27  A    between atoms: _86  and  _87
REMARK   28  A    between atoms: _90  and  _92
REMARK   29  A    between atoms: _92  and  _93
REMARK   30  A    between atoms: _95  and  _97
REMARK   31  A    between atoms: _97  and  _98
REMARK   32  A    between atoms: _97  and  _100
REMARK   33  A    between atoms: _100  and  _101
REMARK   34  A    between atoms: _104  and  _106
REMARK   35  A    between atoms: _106  and  _107
REMARK   36  A    between atoms: _106  and  _109
REMARK   37  A    between atoms: _112  and  _114
REMARK   38  A    between atoms: _114  and  _115
REMARK   39  A    between atoms: _114  and  _117
REMARK   40  A    between atoms: _117  and  _118
REMARK   41  A    between atoms: _119  and  ZN_502
REMARK   42  A    between atoms: _123  and  _125
REMARK   43  A    between atoms: _125  and  _126
REMARK   44  A    between atoms: _129  and  _131
REMARK   45  A    between atoms: _131  and  _132
REMARK   46  A    between atoms: _131  and  _134
REMARK   47  A    between atoms: _134  and  _135
REMARK   48  A    between atoms: _138  and  _140
REMARK   49  A    between atoms: _140  and  _141
REMARK   50  A    between atoms: _143  and  _145
REMARK   51  A    between atoms: _145  and  _146
REMARK   52  A    between atoms: _145  and  _148
REMARK   53  A    between atoms: _148  and  _149
REMARK   54  A    between atoms: _152  and  _154
REMARK   55  A    between atoms: _154  and  _155
REMARK   56  A    between atoms: _154  and  _157
REMARK   57  A    between atoms: _157  and  _158
REMARK   58  A    between atoms: _161  and  _163
REMARK   59  A    between atoms: _163  and  _164
REMARK   60  A    between atoms: _166  and  _168
REMARK   61  A    between atoms: _168  and  _169
REMARK   62  A    between atoms: _168  and  _171
REMARK   63  A    between atoms: _171  and  _172
REMARK   64  A    between atoms: _172  and  _173
REMARK   65  A    between atoms: _173  and  _174
REMARK   66  A    between atoms: _174  and  _175
REMARK   67  A    between atoms: _179  and  _181
REMARK   68  A    between atoms: _181  and  _182
REMARK   69  A    between atoms: _181  and  _184
REMARK   70  A    between atoms: _184  and  _185
REMARK   71  A    between atoms: _188  and  _190
REMARK   72  A    between atoms: _190  and  _191
REMARK   73  A    between atoms: _190  and  _193
REMARK   74  A    between atoms: _193  and  _194
REMARK   75  A    between atoms: _201  and  _202
REMARK   76  A    between atoms: _207  and  _209
REMARK   77  A    between atoms: _209  and  _210
REMARK   78  A    between atoms: _209  and  _212
REMARK   79  A    between atoms: _212  and  _213
REMARK   80  A    between atoms: _216  and  _218
REMARK   81  A    between atoms: _218  and  _219
REMARK   82  A    between atoms: _218  and  _221
REMARK   83  A    between atoms: _221  and  _222
REMARK   84  A    between atoms: _225  and  _227
REMARK   85  A    between atoms: _227  and  _228
REMARK   86  A    between atoms: _227  and  _230
REMARK   87  A    between atoms: _230  and  _231
REMARK   88  A    between atoms: _235  and  _236
REMARK   89  A    between atoms: _241  and  _243
REMARK   90  A    between atoms: _243  and  _244
REMARK   91  A    between atoms: _247  and  _249
REMARK   92  A    between atoms: _249  and  _250
REMARK   93  A    between atoms: _249  and  _252
REMARK   94  A    between atoms: _252  and  _253
REMARK   95  A    between atoms: _259  and  _261
REMARK   96  A    between atoms: _261  and  _262
REMARK   97  A    between atoms: _261  and  _264
REMARK   98  A    between atoms: _264  and  _265
REMARK   99  A    between atoms: _265  and  _266
REMARK  100  A    between atoms: _266  and  _267
REMARK  101  A    between atoms: _267  and  _268
REMARK  102  A    between atoms: _272  and  _274
REMARK  103  A    between atoms: _274  and  _275
REMARK  104  A    between atoms: _277  and  _279
REMARK  105  A    between atoms: _279  and  _280
REMARK  106  A    between atoms: _283  and  _285
REMARK  107  A    between atoms: _285  and  _286
REMARK  108  A    between atoms: _285  and  _288
REMARK  109  A    between atoms: _288  and  _289
REMARK  110  A    between atoms: _292  and  _294
REMARK  111  A    between atoms: _294  and  _295
REMARK  112  A    between atoms: _294  and  _297
REMARK  113  A    between atoms: _297  and  _298
REMARK  114  A    between atoms: _300  and  _302
REMARK  115  A    between atoms: _302  and  _303
REMARK  116  A    between atoms: _302  and  _305
REMARK  117  A    between atoms: _305  and  _306
REMARK  118  A    between atoms: _309  and  _311
REMARK  119  A    between atoms: _311  and  _312
REMARK  120  A    between atoms: _311  and  _314
REMARK  121  A    between atoms: _314  and  _315
REMARK  122  A    between atoms: _318  and  _320
REMARK  123  A    between atoms: _320  and  _321
REMARK  124  A    between atoms: _320  and  _323
REMARK  125  A    between atoms: _323  and  _324
REMARK  126  A    between atoms: _327  and  _329
REMARK  127  A    between atoms: _329  and  _330
REMARK  128  A    between atoms: _333  and  _335
REMARK  129  A    between atoms: _335  and  _336
REMARK  130  A    between atoms: _335  and  _338
REMARK  131  A    between atoms: _338  and  _339
REMARK  132  A    between atoms: _339  and  _340
REMARK  133  A    between atoms: _345  and  _347
REMARK  134  A    between atoms: _347  and  _348
REMARK  135  A    between atoms: _352  and  _353
REMARK  136  A    between atoms: _358  and  _360
REMARK  137  A    between atoms: _360  and  _361
REMARK  138  A    between atoms: _360  and  _363
REMARK  139  A    between atoms: _363  and  _364
REMARK  140  A    between atoms: _364  and  _365
REMARK  141  A    between atoms: _365  and  _366
REMARK  142  A    between atoms: _366  and  _367
REMARK  143  A    between atoms: _371  and  _373
REMARK  144  A    between atoms: _373  and  _374
REMARK  145  A    between atoms: _373  and  _376
REMARK  146  A    between atoms: _376  and  _377
REMARK  147  A    between atoms: _377  and  _378
REMARK  148  A    between atoms: _380  and  _382
REMARK  149  A    between atoms: _382  and  _383
REMARK  150  A    between atoms: _382  and  _385
REMARK  151  A    between atoms: _385  and  _386
REMARK  152  A    between atoms: _390  and  _391
REMARK  153  A    between atoms: _396  and  _398
REMARK  154  A    between atoms: _398  and  _399
REMARK  155  A    between atoms: _398  and  _401
REMARK  156  A    between atoms: _401  and  _402
REMARK  157  A    between atoms: _407  and  _409
REMARK  158  A    between atoms: _409  and  _410
REMARK  159  A    between atoms: _409  and  _412
REMARK  160  A    between atoms: _412  and  _413
REMARK  161  A    between atoms: _416  and  _418
REMARK  162  A    between atoms: _418  and  _419
REMARK  163  A    between atoms: _418  and  _421
REMARK  164  A    between atoms: _424  and  _426
REMARK  165  A    between atoms: _426  and  _427
REMARK  166  A    between atoms: _426  and  _429
REMARK  167  A    between atoms: _429  and  _430
REMARK  168  A    between atoms: _430  and  _431
REMARK  169  A    between atoms: _431  and  _432
REMARK  170  A    between atoms: _432  and  _433
REMARK  171  A    between atoms: _437  and  _439
REMARK  172  A    between atoms: _439  and  _440
REMARK  173  A    between atoms: _443  and  _445
REMARK  174  A    between atoms: _445  and  _446
REMARK  175  A    between atoms: _445  and  _448
REMARK  176  A    between atoms: _448  and  _449
REMARK  177  A    between atoms: _452  and  _454
REMARK  178  A    between atoms: _454  and  _455
REMARK  179  A    between atoms: _454  and  _457
REMARK  180  A    between atoms: _457  and  _458
REMARK  181  A    between atoms: _461  and  _463
REMARK  182  A    between atoms: _463  and  _464
REMARK  183  A    between atoms: _463  and  _466
REMARK  184  A    between atoms: _466  and  _467
REMARK  185  A    between atoms: _470  and  _472
REMARK  186  A    between atoms: _472  and  _473
REMARK  187  A    between atoms: _472  and  _475
REMARK  188  A    between atoms: _475  and  _476
REMARK  189  A    between atoms: _476  and  _477
REMARK  190  A    between atoms: _480  and  _482
REMARK  191  A    between atoms: _482  and  _483
REMARK  192  A    between atoms: _482  and  _485
REMARK  193  A    between atoms: _485  and  _486
REMARK  194  A    between atoms: _486  and  _487
REMARK  195  A    between atoms: _487  and  _488
REMARK  196  A    between atoms: _488  and  _489
REMARK  197  A    between atoms: _493  and  _495
REMARK  198  A    between atoms: _495  and  _496
REMARK  199  A    between atoms: _495  and  _498
REMARK  200  A    between atoms: _498  and  _499
REMARK                            x       y       z     vdW  Elec       q    Type
REMARK                         _______ _______ _______ _____ _____    ______ ____
ROOT
ATOM      1  CA  ILE A   1      -3.125  10.369  23.816  0.00  0.00    +0.133 C 
ENDROOT
BRANCH   1   2
ATOM      2  N   ILE A   1      -3.219  11.632  24.538  0.00  0.00    -0.239 NA
ATOM      3  H   ILE A   1      -3.290  11.609  25.575  0.00  0.00    +0.142 HD
ENDBRANCH   1   2
BRANCH   1   4
ATOM      4  CB  ILE A   1      -1.862   9.571  24.221  0.00  0.00    +0.023 C 
ATOM      5  CG2 ILE A   1      -1.840   8.183  23.552  0.00  0.00    +0.002 C 
BRANCH   4   6
ATOM      6  CG1 ILE A   1      -0.597  10.351  23.859  0.00  0.00    +0.002 C 
ATOM      7  CD1 ILE A   1       0.670   9.835  24.523  0.00  0.00    +0.000 C 
ENDBRANCH   4   6
ENDBRANCH   1   4
BRANCH   1   8
ATOM      8  C   ILE A   1      -4.377   9.549  24.098  0.00  0.00    +0.224 C 
ATOM      9  O   ILE A   1      -4.799   9.413  25.247  0.00  0.00    -0.287 OA
ENDBRANCH   1   8
TORSDOF 4
REMARK  Name = ../refined-set-2016/2amt/2amt_pocket.pdb
REMARK  200 active torsions:
REMARK  status: ('A' for Active; 'I' for Inactive)
REMARK    1  A    between atoms: _1  and  _3
REMARK    2  A    between atoms: _3  and  _4
REMARK    3  A    between atoms: _3  and  _6
REMARK    4  A    between atoms: _6  and  _7
REMARK    5  A    between atoms: _13  and  _15
REMARK    6  A    between atoms: _24  and  _27
REMARK    7  A    between atoms: _32  and  _33
REMARK    8  A    between atoms: _41  and  _43
REMARK    9  A    between atoms: _43  and  _44
REMARK   10  A    between atoms: _47  and  _49
REMARK   11  A    between atoms: _49  and  _50
REMARK   12  A    between atoms: _49  and  _52
REMARK   13  A    between atoms: _52  and  _53
REMARK   14  A    between atoms: _56  and  _58
REMARK   15  A    between atoms: _58  and  _59
REMARK   16  A    between atoms: _62  and  _64
REMARK   17  A    between atoms: _64  and  _65
REMARK   18  A    between atoms: _64  and  _67
REMARK   19  A    between atoms: _67  and  _68
REMARK   20  A    between atoms: _73  and  _75
REMARK   21  A    between atoms: _75  and  _76
REMARK   22  A    between atoms: _75  and  _78
REMARK   23  A    between atoms: _78  and  _79
REMARK   24  A    between atoms: _81  and  _83
REMARK   25  A    between atoms: _83  and  _84
REMARK   26  A    between atoms: _83  and  _86
REMARK   27  A    between atoms: _86  and  _87
REMARK   28  A    between atoms: _90  and  _92
REMARK   29  A    between atoms: _92  and  _93
REMARK   30  A    between atoms: _95  and  _97
REMARK   31  A    between atoms: _97  and  _98
REMARK   32  A    between atoms: _97  and  _100
REMARK   33  A    between atoms: _100  and  _101
REMARK   34  A    between atoms: _104  and  _106
REMARK   35  A    between atoms: _106  and  _107
REMARK   36  A    between atoms: _106  and  _109
REMARK   37  A    between atoms: _112  and  _114
REMARK   38  A    between atoms: _114  and  _115
REMARK   39  A    between atoms: _114  and  _117
REMARK   40  A    between atoms: _117  and  _118
REMARK   41  A    between atoms: _119  and  ZN_502
REMARK   42  A    between atoms: _123  and  _125
REMARK   43  A    between atoms: _125  and  _126
REMARK   44  A    between atoms: _129  and  _131
REMARK   45  A    between atoms: _131  and  _132
REMARK   46  A    between atoms: _131  and  _134
REMARK   47  A    between atoms: _134  and  _135
REMARK   48  A    between atoms: _138  and  _140
REMARK   49  A    between atoms: _140  and  _141
REMARK   50  A    between atoms: _143  and  _145
REMARK   51  A    between atoms: _145  and  _146
REMARK   52  A    between atoms: _145  and  _148
REMARK   53  A    between atoms: _148  and  _149
REMARK   54  A    between atoms: _152  and  _154
REMARK   55  A    between atoms: _154  and  _155
REMARK   56  A    between atoms: _154  and  _157
REMARK   57  A    between atoms: _157  and  _158
REMARK   58  A    between atoms: _161  and  _163
REMARK   59  A    between atoms: _163  and  _164
REMARK   60  A    between atoms: _166  and  _168
REMARK   61  A    between atoms: _168  and  _169
REMARK   62  A    between atoms: _168  and  _171
REMARK   63  A    between atoms: _171  and  _172
REMARK   64  A    between atoms: _172  and  _173
REMARK   65  A    between atoms: _173  and  _174
REMARK   66  A    between atoms: _174  and  _175
REMARK   67  A    between atoms: _179  and  _181
REMARK   68  A    between atoms: _181  and  _182
REMARK   69  A    between atoms: _181  and  _184
REMARK   70  A    between atoms: _184  and  _185
REMARK   71  A    between atoms: _188  and  _190
REMARK   72  A    between atoms: _190  and  _191
REMARK   73  A    between atoms: _190  and  _193
REMARK   74  A    between atoms: _193  and  _194
REMARK   75  A    between atoms: _201  and  _202
REMARK   76  A    between atoms: _207  and  _209
REMARK   77  A    between atoms: _209  and  _210
REMARK   78  A    between atoms: _209  and  _212
REMARK   79  A    between atoms: _212  and  _213
REMARK   80  A    between atoms: _216  and  _218
REMARK   81  A    between atoms: _218  and  _219
REMARK   82  A    between atoms: _218  and  _221
REMARK   83  A    between atoms: _221  and  _222
REMARK   84  A    between atoms: _225  and  _227
REMARK   85  A    between atoms: _227  and  _228
REMARK   86  A    between atoms: _227  and  _230
REMARK   87  A    between atoms: _230  and  _231
REMARK   88  A    between atoms: _235  and  _236
REMARK   89  A    between atoms: _241  and  _243
REMARK   90  A    between atoms: _243  and  _244
REMARK   91  A    between atoms: _247  and  _249
REMARK   92  A    between atoms: _249  and  _250
REMARK   93  A    between atoms: _249  and  _252
REMARK   94  A    between atoms: _252  and  _253
REMARK   95  A    between atoms: _259  and  _261
REMARK   96  A    between atoms: _261  and  _262
REMARK   97  A    between atoms: _261  and  _264
REMARK   98  A    between atoms: _264  and  _265
REMARK   99  A    between atoms: _265  and  _266
REMARK  100  A    between atoms: _266  and  _267
REMARK  101  A    between atoms: _267  and  _268
REMARK  102  A    between atoms: _272  and  _274
REMARK  103  A    between atoms: _274  and  _275
REMARK  104  A    between atoms: _277  and  _279
REMARK  105  A    between atoms: _279  and  _280
REMARK  106  A    between atoms: _283  and  _285
REMARK  107  A    between atoms: _285  and  _286
REMARK  108  A    between atoms: _285  and  _288
REMARK  109  A    between atoms: _288  and  _289
REMARK  110  A    between atoms: _292  and  _294
REMARK  111  A    between atoms: _294  and  _295
REMARK  112  A    between atoms: _294  and  _297
REMARK  113  A    between atoms: _297  and  _298
REMARK  114  A    between atoms: _300  and  _302
REMARK  115  A    between atoms: _302  and  _303
REMARK  116  A    between atoms: _302  and  _305
REMARK  117  A    between atoms: _305  and  _306
REMARK  118  A    between atoms: _309  and  _311
REMARK  119  A    between atoms: _311  and  _312
REMARK  120  A    between atoms: _311  and  _314
REMARK  121  A    between atoms: _314  and  _315
REMARK  122  A    between atoms: _318  and  _320
REMARK  123  A    between atoms: _320  and  _321
REMARK  124  A    between atoms: _320  and  _323
REMARK  125  A    between atoms: _323  and  _324
REMARK  126  A    between atoms: _327  and  _329
REMARK  127  A    between atoms: _329  and  _330
REMARK  128  A    between atoms: _333  and  _335
REMARK  129  A    between atoms: _335  and  _336
REMARK  130  A    between atoms: _335  and  _338
REMARK  131  A    between atoms: _338  and  _339
REMARK  132  A    between atoms: _339  and  _340
REMARK  133  A    between atoms: _345  and  _347
REMARK  134  A    between atoms: _347  and  _348
REMARK  135  A    between atoms: _352  and  _353
REMARK  136  A    between atoms: _358  and  _360
REMARK  137  A    between atoms: _360  and  _361
REMARK  138  A    between atoms: _360  and  _363
REMARK  139  A    between atoms: _363  and  _364
REMARK  140  A    between atoms: _364  and  _365
REMARK  141  A    between atoms: _365  and  _366
REMARK  142  A    between atoms: _366  and  _367
REMARK  143  A    between atoms: _371  and  _373
REMARK  144  A    between atoms: _373  and  _374
REMARK  145  A    between atoms: _373  and  _376
REMARK  146  A    between atoms: _376  and  _377
REMARK  147  A    between atoms: _377  and  _378
REMARK  148  A    between atoms: _380  and  _382
REMARK  149  A    between atoms: _382  and  _383
REMARK  150  A    between atoms: _382  and  _385
REMARK  151  A    between atoms: _385  and  _386
REMARK  152  A    between atoms: _390  and  _391
REMARK  153  A    between atoms: _396  and  _398
REMARK  154  A    between atoms: _398  and  _399
REMARK  155  A    between atoms: _398  and  _401
REMARK  156  A    between atoms: _401  and  _402
REMARK  157  A    between atoms: _407  and  _409
REMARK  158  A    between atoms: _409  and  _410
REMARK  159  A    between atoms: _409  and  _412
REMARK  160  A    between atoms: _412  and  _413
REMARK  161  A    between atoms: _416  and  _418
REMARK  162  A    between atoms: _418  and  _419
REMARK  163  A    between atoms: _418  and  _421
REMARK  164  A    between atoms: _424  and  _426
REMARK  165  A    between atoms: _426  and  _427
REMARK  166  A    between atoms: _426  and  _429
REMARK  167  A    between atoms: _429  and  _430
REMARK  168  A    between atoms: _430  and  _431
REMARK  169  A    between atoms: _431  and  _432
REMARK  170  A    between atoms: _432  and  _433
REMARK  171  A    between atoms: _437  and  _439
REMARK  172  A    between atoms: _439  and  _440
REMARK  173  A    between atoms: _443  and  _445
REMARK  174  A    between atoms: _445  and  _446
REMARK  175  A    between atoms: _445  and  _448
REMARK  176  A    between atoms: _448  and  _449
REMARK  177  A    between atoms: _452  and  _454
REMARK  178  A    between atoms: _454  and  _455
REMARK  179  A    between atoms: _454  and  _457
REMARK  180  A    between atoms: _457  and  _458
REMARK  181  A    between atoms: _461  and  _463
REMARK  182  A    between atoms: _463  and  _464
REMARK  183  A    between atoms: _463  and  _466
REMARK  184  A    between atoms: _466  and  _467
REMARK  185  A    between atoms: _470  and  _472
REMARK  186  A    between atoms: _472  and  _473
REMARK  187  A    between atoms: _472  and  _475
REMARK  188  A    between atoms: _475  and  _476
REMARK  189  A    between atoms: _476  and  _477
REMARK  190  A    between atoms: _480  and  _482
REMARK  191  A    between atoms: _482  and  _483
REMARK  192  A    between atoms: _482  and  _485
REMARK  193  A    between atoms: _485  and  _486
REMARK  194  A    between atoms: _486  and  _487
REMARK  195  A    between atoms: _487  and  _488
REMARK  196  A    between atoms: _488  and  _489
REMARK  197  A    between atoms: _493  and  _495
REMARK  198  A    between atoms: _495  and  _496
REMARK  199  A    between atoms: _495  and  _498
REMARK  200  A    between atoms: _498  and  _499
REMARK                            x       y       z     vdW  Elec       q    Type
REMARK                         _______ _______ _______ _____ _____    ______ ____
ROOT
ATOM      1  O   HOH     1      -5.375   1.461  13.097  0.00  0.00    +0.000 OA
ENDROOT
TORSDOF 0
REMARK  Name = ../refined-set-2016/2amt/2amt_pocket.pdb
REMARK  200 active torsions:
REMARK  status: ('A' for Active; 'I' for Inactive)
REMARK    1  A    between atoms: _1  and  _3
REMARK    2  A    between atoms: _3  and  _4
REMARK    3  A    between atoms: _3  and  _6
REMARK    4  A    between atoms: _6  and  _7
REMARK    5  A    between atoms: _13  and  _15
REMARK    6  A    between atoms: _24  and  _27
REMARK    7  A    between atoms: _32  and  _33
REMARK    8  A    between atoms: _41  and  _43
REMARK    9  A    between atoms: _43  and  _44
REMARK   10  A    between atoms: _47  and  _49
REMARK   11  A    between atoms: _49  and  _50
REMARK   12  A    between atoms: _49  and  _52
REMARK   13  A    between atoms: _52  and  _53
REMARK   14  A    between atoms: _56  and  _58
REMARK   15  A    between atoms: _58  and  _59
REMARK   16  A    between atoms: _62  and  _64
REMARK   17  A    between atoms: _64  and  _65
REMARK   18  A    between atoms: _64  and  _67
REMARK   19  A    between atoms: _67  and  _68
REMARK   20  A    between atoms: _73  and  _75
REMARK   21  A    between atoms: _75  and  _76
REMARK   22  A    between atoms: _75  and  _78
REMARK   23  A    between atoms: _78  and  _79
REMARK   24  A    between atoms: _81  and  _83
REMARK   25  A    between atoms: _83  and  _84
REMARK   26  A    between atoms: _83  and  _86
REMARK   27  A    between atoms: _86  and  _87
REMARK   28  A    between atoms: _90  and  _92
REMARK   29  A    between atoms: _92  and  _93
REMARK   30  A    between atoms: _95  and  _97
REMARK   31  A    between atoms: _97  and  _98
REMARK   32  A    between atoms: _97  and  _100
REMARK   33  A    between atoms: _100  and  _101
REMARK   34  A    between atoms: _104  and  _106
REMARK   35  A    between atoms: _106  and  _107
REMARK   36  A    between atoms: _106  and  _109
REMARK   37  A    between atoms: _112  and  _114
REMARK   38  A    between atoms: _114  and  _115
REMARK   39  A    between atoms: _114  and  _117
REMARK   40  A    between atoms: _117  and  _118
REMARK   41  A    between atoms: _119  and  ZN_502
REMARK   42  A    between atoms: _123  and  _125
REMARK   43  A    between atoms: _125  and  _126
REMARK   44  A    between atoms: _129  and  _131
REMARK   45  A    between atoms: _131  and  _132
REMARK   46  A    between atoms: _131  and  _134
REMARK   47  A    between atoms: _134  and  _135
REMARK   48  A    between atoms: _138  and  _140
REMARK   49  A    between atoms: _140  and  _141
REMARK   50  A    between atoms: _143  and  _145
REMARK   51  A    between atoms: _145  and  _146
REMARK   52  A    between atoms: _145  and  _148
REMARK   53  A    between atoms: _148  and  _149
REMARK   54  A    between atoms: _152  and  _154
REMARK   55  A    between atoms: _154  and  _155
REMARK   56  A    between atoms: _154  and  _157
REMARK   57  A    between atoms: _157  and  _158
REMARK   58  A    between atoms: _161  and  _163
REMARK   59  A    between atoms: _163  and  _164
REMARK   60  A    between atoms: _166  and  _168
REMARK   61  A    between atoms: _168  and  _169
REMARK   62  A    between atoms: _168  and  _171
REMARK   63  A    between atoms: _171  and  _172
REMARK   64  A    between atoms: _172  and  _173
REMARK   65  A    between atoms: _173  and  _174
REMARK   66  A    between atoms: _174  and  _175
REMARK   67  A    between atoms: _179  and  _181
REMARK   68  A    between atoms: _181  and  _182
REMARK   69  A    between atoms: _181  and  _184
REMARK   70  A    between atoms: _184  and  _185
REMARK   71  A    between atoms: _188  and  _190
REMARK   72  A    between atoms: _190  and  _191
REMARK   73  A    between atoms: _190  and  _193
REMARK   74  A    between atoms: _193  and  _194
REMARK   75  A    between atoms: _201  and  _202
REMARK   76  A    between atoms: _207  and  _209
REMARK   77  A    between atoms: _209  and  _210
REMARK   78  A    between atoms: _209  and  _212
REMARK   79  A    between atoms: _212  and  _213
REMARK   80  A    between atoms: _216  and  _218
REMARK   81  A    between atoms: _218  and  _219
REMARK   82  A    between atoms: _218  and  _221
REMARK   83  A    between atoms: _221  and  _222
REMARK   84  A    between atoms: _225  and  _227
REMARK   85  A    between atoms: _227  and  _228
REMARK   86  A    between atoms: _227  and  _230
REMARK   87  A    between atoms: _230  and  _231
REMARK   88  A    between atoms: _235  and  _236
REMARK   89  A    between atoms: _241  and  _243
REMARK   90  A    between atoms: _243  and  _244
REMARK   91  A    between atoms: _247  and  _249
REMARK   92  A    between atoms: _249  and  _250
REMARK   93  A    between atoms: _249  and  _252
REMARK   94  A    between atoms: _252  and  _253
REMARK   95  A    between atoms: _259  and  _261
REMARK   96  A    between atoms: _261  and  _262
REMARK   97  A    between atoms: _261  and  _264
REMARK   98  A    between atoms: _264  and  _265
REMARK   99  A    between atoms: _265  and  _266
REMARK  100  A    between atoms: _266  and  _267
REMARK  101  A    between atoms: _267  and  _268
REMARK  102  A    between atoms: _272  and  _274
REMARK  103  A    between atoms: _274  and  _275
REMARK  104  A    between atoms: _277  and  _279
REMARK  105  A    between atoms: _279  and  _280
REMARK  106  A    between atoms: _283  and  _285
REMARK  107  A    between atoms: _285  and  _286
REMARK  108  A    between atoms: _285  and  _288
REMARK  109  A    between atoms: _288  and  _289
REMARK  110  A    between atoms: _292  and  _294
REMARK  111  A    between atoms: _294  and  _295
REMARK  112  A    between atoms: _294  and  _297
REMARK  113  A    between atoms: _297  and  _298
REMARK  114  A    between atoms: _300  and  _302
REMARK  115  A    between atoms: _302  and  _303
REMARK  116  A    between atoms: _302  and  _305
REMARK  117  A    between atoms: _305  and  _306
REMARK  118  A    between atoms: _309  and  _311
REMARK  119  A    between atoms: _311  and  _312
REMARK  120  A    between atoms: _311  and  _314
REMARK  121  A    between atoms: _314  and  _315
REMARK  122  A    between atoms: _318  and  _320
REMARK  123  A    between atoms: _320  and  _321
REMARK  124  A    between atoms: _320  and  _323
REMARK  125  A    between atoms: _323  and  _324
REMARK  126  A    between atoms: _327  and  _329
REMARK  127  A    between atoms: _329  and  _330
REMARK  128  A    between atoms: _333  and  _335
REMARK  129  A    between atoms: _335  and  _336
REMARK  130  A    between atoms: _335  and  _338
REMARK  131  A    between atoms: _338  and  _339
REMARK  132  A    between atoms: _339  and  _340
REMARK  133  A    between atoms: _345  and  _347
REMARK  134  A    between atoms: _347  and  _348
REMARK  135  A    between atoms: _352  and  _353
REMARK  136  A    between atoms: _358  and  _360
REMARK  137  A    between atoms: _360  and  _361
REMARK  138  A    between atoms: _360  and  _363
REMARK  139  A    between atoms: _363  and  _364
REMARK  140  A    between atoms: _364  and  _365
REMARK  141  A    between atoms: _365  and  _366
REMARK  142  A    between atoms: _366  and  _367
REMARK  143  A    between atoms: _371  and  _373
REMARK  144  A    between atoms: _373  and  _374
REMARK  145  A    between atoms: _373  and  _376
REMARK  146  A    between atoms: _376  and  _377
REMARK  147  A    between atoms: _377  and  _378
REMARK  148  A    between atoms: _380  and  _382
REMARK  149  A    between atoms: _382  and  _383
REMARK  150  A    between atoms: _382  and  _385
REMARK  151  A    between atoms: _385  and  _386
REMARK  152  A    between atoms: _390  and  _391
REMARK  153  A    between atoms: _396  and  _398
REMARK  154  A    between atoms: _398  and  _399
REMARK  155  A    between atoms: _398  and  _401
REMARK  156  A    between atoms: _401  and  _402
REMARK  157  A    between atoms: _407  and  _409
REMARK  158  A    between atoms: _409  and  _410
REMARK  159  A    between atoms: _409  and  _412
REMARK  160  A    between atoms: _412  and  _413
REMARK  161  A    between atoms: _416  and  _418
REMARK  162  A    between atoms: _418  and  _419
REMARK  163  A    between atoms: _418  and  _421
REMARK  164  A    between atoms: _424  and  _426
REMARK  165  A    between atoms: _426  and  _427
REMARK  166  A    between atoms: _426  and  _429
REMARK  167  A    between atoms: _429  and  _430
REMARK  168  A    between atoms: _430  and  _431
REMARK  169  A    between atoms: _431  and  _432
REMARK  170  A    between atoms: _432  and  _433
REMARK  171  A    between atoms: _437  and  _439
REMARK  172  A    between atoms: _439  and  _440
REMARK  173  A    between atoms: _443  and  _445
REMARK  174  A    between atoms: _445  and  _446
REMARK  175  A    between atoms: _445  and  _448
REMARK  176  A    between atoms: _448  and  _449
REMARK  177  A    between atoms: _452  and  _454
REMARK  178  A    between atoms: _454  and  _455
REMARK  179  A    between atoms: _454  and  _457
REMARK  180  A    between atoms: _457  and  _458
REMARK  181  A    between atoms: _461  and  _463
REMARK  182  A    between atoms: _463  and  _464
REMARK  183  A    between atoms: _463  and  _466
REMARK  184  A    between atoms: _466  and  _467
REMARK  185  A    between atoms: _470  and  _472
REMARK  186  A    between atoms: _472  and  _473
REMARK  187  A    between atoms: _472  and  _475
REMARK  188  A    between atoms: _475  and  _476
REMARK  189  A    between atoms: _476  and  _477
REMARK  190  A    between atoms: _480  and  _482
REMARK  191  A    between atoms: _482  and  _483
REMARK  192  A    between atoms: _482  and  _485
REMARK  193  A    between atoms: _485  and  _486
REMARK  194  A    between atoms: _486  and  _487
REMARK  195  A    between atoms: _487  and  _488
REMARK  196  A    between atoms: _488  and  _489
REMARK  197  A    between atoms: _493  and  _495
REMARK  198  A    between atoms: _495  and  _496
REMARK  199  A    between atoms: _495  and  _498
REMARK  200  A    between atoms: _498  and  _499
REMARK                            x       y       z     vdW  Elec       q    Type
REMARK                         _______ _______ _______ _____ _____    ______ ____
ROOT
ATOM      1  O   HOH     1       2.692  -1.674  14.527  0.00  0.00    +0.000 OA
ENDROOT
TORSDOF 0
REMARK  Name = ../refined-set-2016/2amt/2amt_pocket.pdb
REMARK  200 active torsions:
REMARK  status: ('A' for Active; 'I' for Inactive)
REMARK    1  A    between atoms: _1  and  _3
REMARK    2  A    between atoms: _3  and  _4
REMARK    3  A    between atoms: _3  and  _6
REMARK    4  A    between atoms: _6  and  _7
REMARK    5  A    between atoms: _13  and  _15
REMARK    6  A    between atoms: _24  and  _27
REMARK    7  A    between atoms: _32  and  _33
REMARK    8  A    between atoms: _41  and  _43
REMARK    9  A    between atoms: _43  and  _44
REMARK   10  A    between atoms: _47  and  _49
REMARK   11  A    between atoms: _49  and  _50
REMARK   12  A    between atoms: _49  and  _52
REMARK   13  A    between atoms: _52  and  _53
REMARK   14  A    between atoms: _56  and  _58
REMARK   15  A    between atoms: _58  and  _59
REMARK   16  A    between atoms: _62  and  _64
REMARK   17  A    between atoms: _64  and  _65
REMARK   18  A    between atoms: _64  and  _67
REMARK   19  A    between atoms: _67  and  _68
REMARK   20  A    between atoms: _73  and  _75
REMARK   21  A    between atoms: _75  and  _76
REMARK   22  A    between atoms: _75  and  _78
REMARK   23  A    between atoms: _78  and  _79
REMARK   24  A    between atoms: _81  and  _83
REMARK   25  A    between atoms: _83  and  _84
REMARK   26  A    between atoms: _83  and  _86
REMARK   27  A    between atoms: _86  and  _87
REMARK   28  A    between atoms: _90  and  _92
REMARK   29  A    between atoms: _92  and  _93
REMARK   30  A    between atoms: _95  and  _97
REMARK   31  A    between atoms: _97  and  _98
REMARK   32  A    between atoms: _97  and  _100
REMARK   33  A    between atoms: _100  and  _101
REMARK   34  A    between atoms: _104  and  _106
REMARK   35  A    between atoms: _106  and  _107
REMARK   36  A    between atoms: _106  and  _109
REMARK   37  A    between atoms: _112  and  _114
REMARK   38  A    between atoms: _114  and  _115
REMARK   39  A    between atoms: _114  and  _117
REMARK   40  A    between atoms: _117  and  _118
REMARK   41  A    between atoms: _119  and  ZN_502
REMARK   42  A    between atoms: _123  and  _125
REMARK   43  A    between atoms: _125  and  _126
REMARK   44  A    between atoms: _129  and  _131
REMARK   45  A    between atoms: _131  and  _132
REMARK   46  A    between atoms: _131  and  _134
REMARK   47  A    between atoms: _134  and  _135
REMARK   48  A    between atoms: _138  and  _140
REMARK   49  A    between atoms: _140  and  _141
REMARK   50  A    between atoms: _143  and  _145
REMARK   51  A    between atoms: _145  and  _146
REMARK   52  A    between atoms: _145  and  _148
REMARK   53  A    between atoms: _148  and  _149
REMARK   54  A    between atoms: _152  and  _154
REMARK   55  A    between atoms: _154  and  _155
REMARK   56  A    between atoms: _154  and  _157
REMARK   57  A    between atoms: _157  and  _158
REMARK   58  A    between atoms: _161  and  _163
REMARK   59  A    between atoms: _163  and  _164
REMARK   60  A    between atoms: _166  and  _168
REMARK   61  A    between atoms: _168  and  _169
REMARK   62  A    between atoms: _168  and  _171
REMARK   63  A    between atoms: _171  and  _172
REMARK   64  A    between atoms: _172  and  _173
REMARK   65  A    between atoms: _173  and  _174
REMARK   66  A    between atoms: _174  and  _175
REMARK   67  A    between atoms: _179  and  _181
REMARK   68  A    between atoms: _181  and  _182
REMARK   69  A    between atoms: _181  and  _184
REMARK   70  A    between atoms: _184  and  _185
REMARK   71  A    between atoms: _188  and  _190
REMARK   72  A    between atoms: _190  and  _191
REMARK   73  A    between atoms: _190  and  _193
REMARK   74  A    between atoms: _193  and  _194
REMARK   75  A    between atoms: _201  and  _202
REMARK   76  A    between atoms: _207  and  _209
REMARK   77  A    between atoms: _209  and  _210
REMARK   78  A    between atoms: _209  and  _212
REMARK   79  A    between atoms: _212  and  _213
REMARK   80  A    between atoms: _216  and  _218
REMARK   81  A    between atoms: _218  and  _219
REMARK   82  A    between atoms: _218  and  _221
REMARK   83  A    between atoms: _221  and  _222
REMARK   84  A    between atoms: _225  and  _227
REMARK   85  A    between atoms: _227  and  _228
REMARK   86  A    between atoms: _227  and  _230
REMARK   87  A    between atoms: _230  and  _231
REMARK   88  A    between atoms: _235  and  _236
REMARK   89  A    between atoms: _241  and  _243
REMARK   90  A    between atoms: _243  and  _244
REMARK   91  A    between atoms: _247  and  _249
REMARK   92  A    between atoms: _249  and  _250
REMARK   93  A    between atoms: _249  and  _252
REMARK   94  A    between atoms: _252  and  _253
REMARK   95  A    between atoms: _259  and  _261
REMARK   96  A    between atoms: _261  and  _262
REMARK   97  A    between atoms: _261  and  _264
REMARK   98  A    between atoms: _264  and  _265
REMARK   99  A    between atoms: _265  and  _266
REMARK  100  A    between atoms: _266  and  _267
REMARK  101  A    between atoms: _267  and  _268
REMARK  102  A    between atoms: _272  and  _274
REMARK  103  A    between atoms: _274  and  _275
REMARK  104  A    between atoms: _277  and  _279
REMARK  105  A    between atoms: _279  and  _280
REMARK  106  A    between atoms: _283  and  _285
REMARK  107  A    between atoms: _285  and  _286
REMARK  108  A    between atoms: _285  and  _288
REMARK  109  A    between atoms: _288  and  _289
REMARK  110  A    between atoms: _292  and  _294
REMARK  111  A    between atoms: _294  and  _295
REMARK  112  A    between atoms: _294  and  _297
REMARK  113  A    between atoms: _297  and  _298
REMARK  114  A    between atoms: _300  and  _302
REMARK  115  A    between atoms: _302  and  _303
REMARK  116  A    between atoms: _302  and  _305
REMARK  117  A    between atoms: _305  and  _306
REMARK  118  A    between atoms: _309  and  _311
REMARK  119  A    between atoms: _311  and  _312
REMARK  120  A    between atoms: _311  and  _314
REMARK  121  A    between atoms: _314  and  _315
REMARK  122  A    between atoms: _318  and  _320
REMARK  123  A    between atoms: _320  and  _321
REMARK  124  A    between atoms: _320  and  _323
REMARK  125  A    between atoms: _323  and  _324
REMARK  126  A    between atoms: _327  and  _329
REMARK  127  A    between atoms: _329  and  _330
REMARK  128  A    between atoms: _333  and  _335
REMARK  129  A    between atoms: _335  and  _336
REMARK  130  A    between atoms: _335  and  _338
REMARK  131  A    between atoms: _338  and  _339
REMARK  132  A    between atoms: _339  and  _340
REMARK  133  A    between atoms: _345  and  _347
REMARK  134  A    between atoms: _347  and  _348
REMARK  135  A    between atoms: _352  and  _353
REMARK  136  A    between atoms: _358  and  _360
REMARK  137  A    between atoms: _360  and  _361
REMARK  138  A    between atoms: _360  and  _363
REMARK  139  A    between atoms: _363  and  _364
REMARK  140  A    between atoms: _364  and  _365
REMARK  141  A    between atoms: _365  and  _366
REMARK  142  A    between atoms: _366  and  _367
REMARK  143  A    between atoms: _371  and  _373
REMARK  144  A    between atoms: _373  and  _374
REMARK  145  A    between atoms: _373  and  _376
REMARK  146  A    between atoms: _376  and  _377
REMARK  147  A    between atoms: _377  and  _378
REMARK  148  A    between atoms: _380  and  _382
REMARK  149  A    between atoms: _382  and  _383
REMARK  150  A    between atoms: _382  and  _385
REMARK  151  A    between atoms: _385  and  _386
REMARK  152  A    between atoms: _390  and  _391
REMARK  153  A    between atoms: _396  and  _398
REMARK  154  A    between atoms: _398  and  _399
REMARK  155  A    between atoms: _398  and  _401
REMARK  156  A    between atoms: _401  and  _402
REMARK  157  A    between atoms: _407  and  _409
REMARK  158  A    between atoms: _409  and  _410
REMARK  159  A    between atoms: _409  and  _412
REMARK  160  A    between atoms: _412  and  _413
REMARK  161  A    between atoms: _416  and  _418
REMARK  162  A    between atoms: _418  and  _419
REMARK  163  A    between atoms: _418  and  _421
REMARK  164  A    between atoms: _424  and  _426
REMARK  165  A    between atoms: _426  and  _427
REMARK  166  A    between atoms: _426  and  _429
REMARK  167  A    between atoms: _429  and  _430
REMARK  168  A    between atoms: _430  and  _431
REMARK  169  A    between atoms: _431  and  _432
REMARK  170  A    between atoms: _432  and  _433
REMARK  171  A    between atoms: _437  and  _439
REMARK  172  A    between atoms: _439  and  _440
REMARK  173  A    between atoms: _443  and  _445
REMARK  174  A    between atoms: _445  and  _446
REMARK  175  A    between atoms: _445  and  _448
REMARK  176  A    between atoms: _448  and  _449
REMARK  177  A    between atoms: _452  and  _454
REMARK  178  A    between atoms: _454  and  _455
REMARK  179  A    between atoms: _454  and  _457
REMARK  180  A    between atoms: _457  and  _458
REMARK  181  A    between atoms: _461  and  _463
REMARK  182  A    between atoms: _463  and  _464
REMARK  183  A    between atoms: _463  and  _466
REMARK  184  A    between atoms: _466  and  _467
REMARK  185  A    between atoms: _470  and  _472
REMARK  186  A    between atoms: _472  and  _473
REMARK  187  A    between atoms: _472  and  _475
REMARK  188  A    between atoms: _475  and  _476
REMARK  189  A    between atoms: _476  and  _477
REMARK  190  A    between atoms: _480  and  _482
REMARK  191  A    between atoms: _482  and  _483
REMARK  192  A    between atoms: _482  and  _485
REMARK  193  A    between atoms: _485  and  _486
REMARK  194  A    between atoms: _486  and  _487
REMARK  195  A    between atoms: _487  and  _488
REMARK  196  A    between atoms: _488  and  _489
REMARK  197  A    between atoms: _493  and  _495
REMARK  198  A    between atoms: _495  and  _496
REMARK  199  A    between atoms: _495  and  _498
REMARK  200  A    between atoms: _498  and  _499
REMARK                            x       y       z     vdW  Elec       q    Type
REMARK                         _______ _______ _______ _____ _____    ______ ____
ROOT
ATOM      1  O   HOH     1       2.228   1.252  14.751  0.00  0.00    +0.000 OA
ENDROOT
TORSDOF 0
REMARK  Name = ../refined-set-2016/2amt/2amt_pocket.pdb
REMARK  200 active torsions:
REMARK  status: ('A' for Active; 'I' for Inactive)
REMARK    1  A    between atoms: _1  and  _3
REMARK    2  A    between atoms: _3  and  _4
REMARK    3  A    between atoms: _3  and  _6
REMARK    4  A    between atoms: _6  and  _7
REMARK    5  A    between atoms: _13  and  _15
REMARK    6  A    between atoms: _24  and  _27
REMARK    7  A    between atoms: _32  and  _33
REMARK    8  A    between atoms: _41  and  _43
REMARK    9  A    between atoms: _43  and  _44
REMARK   10  A    between atoms: _47  and  _49
REMARK   11  A    between atoms: _49  and  _50
REMARK   12  A    between atoms: _49  and  _52
REMARK   13  A    between atoms: _52  and  _53
REMARK   14  A    between atoms: _56  and  _58
REMARK   15  A    between atoms: _58  and  _59
REMARK   16  A    between atoms: _62  and  _64
REMARK   17  A    between atoms: _64  and  _65
REMARK   18  A    between atoms: _64  and  _67
REMARK   19  A    between atoms: _67  and  _68
REMARK   20  A    between atoms: _73  and  _75
REMARK   21  A    between atoms: _75  and  _76
REMARK   22  A    between atoms: _75  and  _78
REMARK   23  A    between atoms: _78  and  _79
REMARK   24  A    between atoms: _81  and  _83
REMARK   25  A    between atoms: _83  and  _84
REMARK   26  A    between atoms: _83  and  _86
REMARK   27  A    between atoms: _86  and  _87
REMARK   28  A    between atoms: _90  and  _92
REMARK   29  A    between atoms: _92  and  _93
REMARK   30  A    between atoms: _95  and  _97
REMARK   31  A    between atoms: _97  and  _98
REMARK   32  A    between atoms: _97  and  _100
REMARK   33  A    between atoms: _100  and  _101
REMARK   34  A    between atoms: _104  and  _106
REMARK   35  A    between atoms: _106  and  _107
REMARK   36  A    between atoms: _106  and  _109
REMARK   37  A    between atoms: _112  and  _114
REMARK   38  A    between atoms: _114  and  _115
REMARK   39  A    between atoms: _114  and  _117
REMARK   40  A    between atoms: _117  and  _118
REMARK   41  A    between atoms: _119  and  ZN_502
REMARK   42  A    between atoms: _123  and  _125
REMARK   43  A    between atoms: _125  and  _126
REMARK   44  A    between atoms: _129  and  _131
REMARK   45  A    between atoms: _131  and  _132
REMARK   46  A    between atoms: _131  and  _134
REMARK   47  A    between atoms: _134  and  _135
REMARK   48  A    between atoms: _138  and  _140
REMARK   49  A    between atoms: _140  and  _141
REMARK   50  A    between atoms: _143  and  _145
REMARK   51  A    between atoms: _145  and  _146
REMARK   52  A    between atoms: _145  and  _148
REMARK   53  A    between atoms: _148  and  _149
REMARK   54  A    between atoms: _152  and  _154
REMARK   55  A    between atoms: _154  and  _155
REMARK   56  A    between atoms: _154  and  _157
REMARK   57  A    between atoms: _157  and  _158
REMARK   58  A    between atoms: _161  and  _163
REMARK   59  A    between atoms: _163  and  _164
REMARK   60  A    between atoms: _166  and  _168
REMARK   61  A    between atoms: _168  and  _169
REMARK   62  A    between atoms: _168  and  _171
REMARK   63  A    between atoms: _171  and  _172
REMARK   64  A    between atoms: _172  and  _173
REMARK   65  A    between atoms: _173  and  _174
REMARK   66  A    between atoms: _174  and  _175
REMARK   67  A    between atoms: _179  and  _181
REMARK   68  A    between atoms: _181  and  _182
REMARK   69  A    between atoms: _181  and  _184
REMARK   70  A    between atoms: _184  and  _185
REMARK   71  A    between atoms: _188  and  _190
REMARK   72  A    between atoms: _190  and  _191
REMARK   73  A    between atoms: _190  and  _193
REMARK   74  A    between atoms: _193  and  _194
REMARK   75  A    between atoms: _201  and  _202
REMARK   76  A    between atoms: _207  and  _209
REMARK   77  A    between atoms: _209  and  _210
REMARK   78  A    between atoms: _209  and  _212
REMARK   79  A    between atoms: _212  and  _213
REMARK   80  A    between atoms: _216  and  _218
REMARK   81  A    between atoms: _218  and  _219
REMARK   82  A    between atoms: _218  and  _221
REMARK   83  A    between atoms: _221  and  _222
REMARK   84  A    between atoms: _225  and  _227
REMARK   85  A    between atoms: _227  and  _228
REMARK   86  A    between atoms: _227  and  _230
REMARK   87  A    between atoms: _230  and  _231
REMARK   88  A    between atoms: _235  and  _236
REMARK   89  A    between atoms: _241  and  _243
REMARK   90  A    between atoms: _243  and  _244
REMARK   91  A    between atoms: _247  and  _249
REMARK   92  A    between atoms: _249  and  _250
REMARK   93  A    between atoms: _249  and  _252
REMARK   94  A    between atoms: _252  and  _253
REMARK   95  A    between atoms: _259  and  _261
REMARK   96  A    between atoms: _261  and  _262
REMARK   97  A    between atoms: _261  and  _264
REMARK   98  A    between atoms: _264  and  _265
REMARK   99  A    between atoms: _265  and  _266
REMARK  100  A    between atoms: _266  and  _267
REMARK  101  A    between atoms: _267  and  _268
REMARK  102  A    between atoms: _272  and  _274
REMARK  103  A    between atoms: _274  and  _275
REMARK  104  A    between atoms: _277  and  _279
REMARK  105  A    between atoms: _279  and  _280
REMARK  106  A    between atoms: _283  and  _285
REMARK  107  A    between atoms: _285  and  _286
REMARK  108  A    between atoms: _285  and  _288
REMARK  109  A    between atoms: _288  and  _289
REMARK  110  A    between atoms: _292  and  _294
REMARK  111  A    between atoms: _294  and  _295
REMARK  112  A    between atoms: _294  and  _297
REMARK  113  A    between atoms: _297  and  _298
REMARK  114  A    between atoms: _300  and  _302
REMARK  115  A    between atoms: _302  and  _303
REMARK  116  A    between atoms: _302  and  _305
REMARK  117  A    between atoms: _305  and  _306
REMARK  118  A    between atoms: _309  and  _311
REMARK  119  A    between atoms: _311  and  _312
REMARK  120  A    between atoms: _311  and  _314
REMARK  121  A    between atoms: _314  and  _315
REMARK  122  A    between atoms: _318  and  _320
REMARK  123  A    between atoms: _320  and  _321
REMARK  124  A    between atoms: _320  and  _323
REMARK  125  A    between atoms: _323  and  _324
REMARK  126  A    between atoms: _327  and  _329
REMARK  127  A    between atoms: _329  and  _330
REMARK  128  A    between atoms: _333  and  _335
REMARK  129  A    between atoms: _335  and  _336
REMARK  130  A    between atoms: _335  and  _338
REMARK  131  A    between atoms: _338  and  _339
REMARK  132  A    between atoms: _339  and  _340
REMARK  133  A    between atoms: _345  and  _347
REMARK  134  A    between atoms: _347  and  _348
REMARK  135  A    between atoms: _352  and  _353
REMARK  136  A    between atoms: _358  and  _360
REMARK  137  A    between atoms: _360  and  _361
REMARK  138  A    between atoms: _360  and  _363
REMARK  139  A    between atoms: _363  and  _364
REMARK  140  A    between atoms: _364  and  _365
REMARK  141  A    between atoms: _365  and  _366
REMARK  142  A    between atoms: _366  and  _367
REMARK  143  A    between atoms: _371  and  _373
REMARK  144  A    between atoms: _373  and  _374
REMARK  145  A    between atoms: _373  and  _376
REMARK  146  A    between atoms: _376  and  _377
REMARK  147  A    between atoms: _377  and  _378
REMARK  148  A    between atoms: _380  and  _382
REMARK  149  A    between atoms: _382  and  _383
REMARK  150  A    between atoms: _382  and  _385
REMARK  151  A    between atoms: _385  and  _386
REMARK  152  A    between atoms: _390  and  _391
REMARK  153  A    between atoms: _396  and  _398
REMARK  154  A    between atoms: _398  and  _399
REMARK  155  A    between atoms: _398  and  _401
REMARK  156  A    between atoms: _401  and  _402
REMARK  157  A    between atoms: _407  and  _409
REMARK  158  A    between atoms: _409  and  _410
REMARK  159  A    between atoms: _409  and  _412
REMARK  160  A    between atoms: _412  and  _413
REMARK  161  A    between atoms: _416  and  _418
REMARK  162  A    between atoms: _418  and  _419
REMARK  163  A    between atoms: _418  and  _421
REMARK  164  A    between atoms: _424  and  _426
REMARK  165  A    between atoms: _426  and  _427
REMARK  166  A    between atoms: _426  and  _429
REMARK  167  A    between atoms: _429  and  _430
REMARK  168  A    between atoms: _430  and  _431
REMARK  169  A    between atoms: _431  and  _432
REMARK  170  A    between atoms: _432  and  _433
REMARK  171  A    between atoms: _437  and  _439
REMARK  172  A    between atoms: _439  and  _440
REMARK  173  A    between atoms: _443  and  _445
REMARK  174  A    between atoms: _445  and  _446
REMARK  175  A    between atoms: _445  and  _448
REMARK  176  A    between atoms: _448  and  _449
REMARK  177  A    between atoms: _452  and  _454
REMARK  178  A    between atoms: _454  and  _455
REMARK  179  A    between atoms: _454  and  _457
REMARK  180  A    between atoms: _457  and  _458
REMARK  181  A    between atoms: _461  and  _463
REMARK  182  A    between atoms: _463  and  _464
REMARK  183  A    between atoms: _463  and  _466
REMARK  184  A    between atoms: _466  and  _467
REMARK  185  A    between atoms: _470  and  _472
REMARK  186  A    between atoms: _472  and  _473
REMARK  187  A    between atoms: _472  and  _475
REMARK  188  A    between atoms: _475  and  _476
REMARK  189  A    between atoms: _476  and  _477
REMARK  190  A    between atoms: _480  and  _482
REMARK  191  A    between atoms: _482  and  _483
REMARK  192  A    between atoms: _482  and  _485
REMARK  193  A    between atoms: _485  and  _486
REMARK  194  A    between atoms: _486  and  _487
REMARK  195  A    between atoms: _487  and  _488
REMARK  196  A    between atoms: _488  and  _489
REMARK  197  A    between atoms: _493  and  _495
REMARK  198  A    between atoms: _495  and  _496
REMARK  199  A    between atoms: _495  and  _498
REMARK  200  A    between atoms: _498  and  _499
REMARK                            x       y       z     vdW  Elec       q    Type
REMARK                         _______ _______ _______ _____ _____    ______ ____
ROOT
ATOM      1  O   HOH     1      -5.648  -0.662   2.395  0.00  0.00    +0.000 OA
ENDROOT
TORSDOF 0
REMARK  Name = ../refined-set-2016/2amt/2amt_pocket.pdb
REMARK  200 active torsions:
REMARK  status: ('A' for Active; 'I' for Inactive)
REMARK    1  A    between atoms: _1  and  _3
REMARK    2  A    between atoms: _3  and  _4
REMARK    3  A    between atoms: _3  and  _6
REMARK    4  A    between atoms: _6  and  _7
REMARK    5  A    between atoms: _13  and  _15
REMARK    6  A    between atoms: _24  and  _27
REMARK    7  A    between atoms: _32  and  _33
REMARK    8  A    between atoms: _41  and  _43
REMARK    9  A    between atoms: _43  and  _44
REMARK   10  A    between atoms: _47  and  _49
REMARK   11  A    between atoms: _49  and  _50
REMARK   12  A    between atoms: _49  and  _52
REMARK   13  A    between atoms: _52  and  _53
REMARK   14  A    between atoms: _56  and  _58
REMARK   15  A    between atoms: _58  and  _59
REMARK   16  A    between atoms: _62  and  _64
REMARK   17  A    between atoms: _64  and  _65
REMARK   18  A    between atoms: _64  and  _67
REMARK   19  A    between atoms: _67  and  _68
REMARK   20  A    between atoms: _73  and  _75
REMARK   21  A    between atoms: _75  and  _76
REMARK   22  A    between atoms: _75  and  _78
REMARK   23  A    between atoms: _78  and  _79
REMARK   24  A    between atoms: _81  and  _83
REMARK   25  A    between atoms: _83  and  _84
REMARK   26  A    between atoms: _83  and  _86
REMARK   27  A    between atoms: _86  and  _87
REMARK   28  A    between atoms: _90  and  _92
REMARK   29  A    between atoms: _92  and  _93
REMARK   30  A    between atoms: _95  and  _97
REMARK   31  A    between atoms: _97  and  _98
REMARK   32  A    between atoms: _97  and  _100
REMARK   33  A    between atoms: _100  and  _101
REMARK   34  A    between atoms: _104  and  _106
REMARK   35  A    between atoms: _106  and  _107
REMARK   36  A    between atoms: _106  and  _109
REMARK   37  A    between atoms: _112  and  _114
REMARK   38  A    between atoms: _114  and  _115
REMARK   39  A    between atoms: _114  and  _117
REMARK   40  A    between atoms: _117  and  _118
REMARK   41  A    between atoms: _119  and  ZN_502
REMARK   42  A    between atoms: _123  and  _125
REMARK   43  A    between atoms: _125  and  _126
REMARK   44  A    between atoms: _129  and  _131
REMARK   45  A    between atoms: _131  and  _132
REMARK   46  A    between atoms: _131  and  _134
REMARK   47  A    between atoms: _134  and  _135
REMARK   48  A    between atoms: _138  and  _140
REMARK   49  A    between atoms: _140  and  _141
REMARK   50  A    between atoms: _143  and  _145
REMARK   51  A    between atoms: _145  and  _146
REMARK   52  A    between atoms: _145  and  _148
REMARK   53  A    between atoms: _148  and  _149
REMARK   54  A    between atoms: _152  and  _154
REMARK   55  A    between atoms: _154  and  _155
REMARK   56  A    between atoms: _154  and  _157
REMARK   57  A    between atoms: _157  and  _158
REMARK   58  A    between atoms: _161  and  _163
REMARK   59  A    between atoms: _163  and  _164
REMARK   60  A    between atoms: _166  and  _168
REMARK   61  A    between atoms: _168  and  _169
REMARK   62  A    between atoms: _168  and  _171
REMARK   63  A    between atoms: _171  and  _172
REMARK   64  A    between atoms: _172  and  _173
REMARK   65  A    between atoms: _173  and  _174
REMARK   66  A    between atoms: _174  and  _175
REMARK   67  A    between atoms: _179  and  _181
REMARK   68  A    between atoms: _181  and  _182
REMARK   69  A    between atoms: _181  and  _184
REMARK   70  A    between atoms: _184  and  _185
REMARK   71  A    between atoms: _188  and  _190
REMARK   72  A    between atoms: _190  and  _191
REMARK   73  A    between atoms: _190  and  _193
REMARK   74  A    between atoms: _193  and  _194
REMARK   75  A    between atoms: _201  and  _202
REMARK   76  A    between atoms: _207  and  _209
REMARK   77  A    between atoms: _209  and  _210
REMARK   78  A    between atoms: _209  and  _212
REMARK   79  A    between atoms: _212  and  _213
REMARK   80  A    between atoms: _216  and  _218
REMARK   81  A    between atoms: _218  and  _219
REMARK   82  A    between atoms: _218  and  _221
REMARK   83  A    between atoms: _221  and  _222
REMARK   84  A    between atoms: _225  and  _227
REMARK   85  A    between atoms: _227  and  _228
REMARK   86  A    between atoms: _227  and  _230
REMARK   87  A    between atoms: _230  and  _231
REMARK   88  A    between atoms: _235  and  _236
REMARK   89  A    between atoms: _241  and  _243
REMARK   90  A    between atoms: _243  and  _244
REMARK   91  A    between atoms: _247  and  _249
REMARK   92  A    between atoms: _249  and  _250
REMARK   93  A    between atoms: _249  and  _252
REMARK   94  A    between atoms: _252  and  _253
REMARK   95  A    between atoms: _259  and  _261
REMARK   96  A    between atoms: _261  and  _262
REMARK   97  A    between atoms: _261  and  _264
REMARK   98  A    between atoms: _264  and  _265
REMARK   99  A    between atoms: _265  and  _266
REMARK  100  A    between atoms: _266  and  _267
REMARK  101  A    between atoms: _267  and  _268
REMARK  102  A    between atoms: _272  and  _274
REMARK  103  A    between atoms: _274  and  _275
REMARK  104  A    between atoms: _277  and  _279
REMARK  105  A    between atoms: _279  and  _280
REMARK  106  A    between atoms: _283  and  _285
REMARK  107  A    between atoms: _285  and  _286
REMARK  108  A    between atoms: _285  and  _288
REMARK  109  A    between atoms: _288  and  _289
REMARK  110  A    between atoms: _292  and  _294
REMARK  111  A    between atoms: _294  and  _295
REMARK  112  A    between atoms: _294  and  _297
REMARK  113  A    between atoms: _297  and  _298
REMARK  114  A    between atoms: _300  and  _302
REMARK  115  A    between atoms: _302  and  _303
REMARK  116  A    between atoms: _302  and  _305
REMARK  117  A    between atoms: _305  and  _306
REMARK  118  A    between atoms: _309  and  _311
REMARK  119  A    between atoms: _311  and  _312
REMARK  120  A    between atoms: _311  and  _314
REMARK  121  A    between atoms: _314  and  _315
REMARK  122  A    between atoms: _318  and  _320
REMARK  123  A    between atoms: _320  and  _321
REMARK  124  A    between atoms: _320  and  _323
REMARK  125  A    between atoms: _323  and  _324
REMARK  126  A    between atoms: _327  and  _329
REMARK  127  A    between atoms: _329  and  _330
REMARK  128  A    between atoms: _333  and  _335
REMARK  129  A    between atoms: _335  and  _336
REMARK  130  A    between atoms: _335  and  _338
REMARK  131  A    between atoms: _338  and  _339
REMARK  132  A    between atoms: _339  and  _340
REMARK  133  A    between atoms: _345  and  _347
REMARK  134  A    between atoms: _347  and  _348
REMARK  135  A    between atoms: _352  and  _353
REMARK  136  A    between atoms: _358  and  _360
REMARK  137  A    between atoms: _360  and  _361
REMARK  138  A    between atoms: _360  and  _363
REMARK  139  A    between atoms: _363  and  _364
REMARK  140  A    between atoms: _364  and  _365
REMARK  141  A    between atoms: _365  and  _366
REMARK  142  A    between atoms: _366  and  _367
REMARK  143  A    between atoms: _371  and  _373
REMARK  144  A    between atoms: _373  and  _374
REMARK  145  A    between atoms: _373  and  _376
REMARK  146  A    between atoms: _376  and  _377
REMARK  147  A    between atoms: _377  and  _378
REMARK  148  A    between atoms: _380  and  _382
REMARK  149  A    between atoms: _382  and  _383
REMARK  150  A    between atoms: _382  and  _385
REMARK  151  A    between atoms: _385  and  _386
REMARK  152  A    between atoms: _390  and  _391
REMARK  153  A    between atoms: _396  and  _398
REMARK  154  A    between atoms: _398  and  _399
REMARK  155  A    between atoms: _398  and  _401
REMARK  156  A    between atoms: _401  and  _402
REMARK  157  A    between atoms: _407  and  _409
REMARK  158  A    between atoms: _409  and  _410
REMARK  159  A    between atoms: _409  and  _412
REMARK  160  A    between atoms: _412  and  _413
REMARK  161  A    between atoms: _416  and  _418
REMARK  162  A    between atoms: _418  and  _419
REMARK  163  A    between atoms: _418  and  _421
REMARK  164  A    between atoms: _424  and  _426
REMARK  165  A    between atoms: _426  and  _427
REMARK  166  A    between atoms: _426  and  _429
REMARK  167  A    between atoms: _429  and  _430
REMARK  168  A    between atoms: _430  and  _431
REMARK  169  A    between atoms: _431  and  _432
REMARK  170  A    between atoms: _432  and  _433
REMARK  171  A    between atoms: _437  and  _439
REMARK  172  A    between atoms: _439  and  _440
REMARK  173  A    between atoms: _443  and  _445
REMARK  174  A    between atoms: _445  and  _446
REMARK  175  A    between atoms: _445  and  _448
REMARK  176  A    between atoms: _448  and  _449
REMARK  177  A    between atoms: _452  and  _454
REMARK  178  A    between atoms: _454  and  _455
REMARK  179  A    between atoms: _454  and  _457
REMARK  180  A    between atoms: _457  and  _458
REMARK  181  A    between atoms: _461  and  _463
REMARK  182  A    between atoms: _463  and  _464
REMARK  183  A    between atoms: _463  and  _466
REMARK  184  A    between atoms: _466  and  _467
REMARK  185  A    between atoms: _470  and  _472
REMARK  186  A    between atoms: _472  and  _473
REMARK  187  A    between atoms: _472  and  _475
REMARK  188  A    between atoms: _475  and  _476
REMARK  189  A    between atoms: _476  and  _477
REMARK  190  A    between atoms: _480  and  _482
REMARK  191  A    between atoms: _482  and  _483
REMARK  192  A    between atoms: _482  and  _485
REMARK  193  A    between atoms: _485  and  _486
REMARK  194  A    between atoms: _486  and  _487
REMARK  195  A    between atoms: _487  and  _488
REMARK  196  A    between atoms: _488  and  _489
REMARK  197  A    between atoms: _493  and  _495
REMARK  198  A    between atoms: _495  and  _496
REMARK  199  A    between atoms: _495  and  _498
REMARK  200  A    between atoms: _498  and  _499
REMARK                            x       y       z     vdW  Elec       q    Type
REMARK                         _______ _______ _______ _____ _____    ______ ____
ROOT
ATOM      1  O   HOH     1       2.964  10.013  11.219  0.00  0.00    +0.000 OA
ENDROOT
TORSDOF 0
REMARK  Name = ../refined-set-2016/2amt/2amt_pocket.pdb
REMARK  200 active torsions:
REMARK  status: ('A' for Active; 'I' for Inactive)
REMARK    1  A    between atoms: _1  and  _3
REMARK    2  A    between atoms: _3  and  _4
REMARK    3  A    between atoms: _3  and  _6
REMARK    4  A    between atoms: _6  and  _7
REMARK    5  A    between atoms: _13  and  _15
REMARK    6  A    between atoms: _24  and  _27
REMARK    7  A    between atoms: _32  and  _33
REMARK    8  A    between atoms: _41  and  _43
REMARK    9  A    between atoms: _43  and  _44
REMARK   10  A    between atoms: _47  and  _49
REMARK   11  A    between atoms: _49  and  _50
REMARK   12  A    between atoms: _49  and  _52
REMARK   13  A    between atoms: _52  and  _53
REMARK   14  A    between atoms: _56  and  _58
REMARK   15  A    between atoms: _58  and  _59
REMARK   16  A    between atoms: _62  and  _64
REMARK   17  A    between atoms: _64  and  _65
REMARK   18  A    between atoms: _64  and  _67
REMARK   19  A    between atoms: _67  and  _68
REMARK   20  A    between atoms: _73  and  _75
REMARK   21  A    between atoms: _75  and  _76
REMARK   22  A    between atoms: _75  and  _78
REMARK   23  A    between atoms: _78  and  _79
REMARK   24  A    between atoms: _81  and  _83
REMARK   25  A    between atoms: _83  and  _84
REMARK   26  A    between atoms: _83  and  _86
REMARK   27  A    between atoms: _86  and  _87
REMARK   28  A    between atoms: _90  and  _92
REMARK   29  A    between atoms: _92  and  _93
REMARK   30  A    between atoms: _95  and  _97
REMARK   31  A    between atoms: _97  and  _98
REMARK   32  A    between atoms: _97  and  _100
REMARK   33  A    between atoms: _100  and  _101
REMARK   34  A    between atoms: _104  and  _106
REMARK   35  A    between atoms: _106  and  _107
REMARK   36  A    between atoms: _106  and  _109
REMARK   37  A    between atoms: _112  and  _114
REMARK   38  A    between atoms: _114  and  _115
REMARK   39  A    between atoms: _114  and  _117
REMARK   40  A    between atoms: _117  and  _118
REMARK   41  A    between atoms: _119  and  ZN_502
REMARK   42  A    between atoms: _123  and  _125
REMARK   43  A    between atoms: _125  and  _126
REMARK   44  A    between atoms: _129  and  _131
REMARK   45  A    between atoms: _131  and  _132
REMARK   46  A    between atoms: _131  and  _134
REMARK   47  A    between atoms: _134  and  _135
REMARK   48  A    between atoms: _138  and  _140
REMARK   49  A    between atoms: _140  and  _141
REMARK   50  A    between atoms: _143  and  _145
REMARK   51  A    between atoms: _145  and  _146
REMARK   52  A    between atoms: _145  and  _148
REMARK   53  A    between atoms: _148  and  _149
REMARK   54  A    between atoms: _152  and  _154
REMARK   55  A    between atoms: _154  and  _155
REMARK   56  A    between atoms: _154  and  _157
REMARK   57  A    between atoms: _157  and  _158
REMARK   58  A    between atoms: _161  and  _163
REMARK   59  A    between atoms: _163  and  _164
REMARK   60  A    between atoms: _166  and  _168
REMARK   61  A    between atoms: _168  and  _169
REMARK   62  A    between atoms: _168  and  _171
REMARK   63  A    between atoms: _171  and  _172
REMARK   64  A    between atoms: _172  and  _173
REMARK   65  A    between atoms: _173  and  _174
REMARK   66  A    between atoms: _174  and  _175
REMARK   67  A    between atoms: _179  and  _181
REMARK   68  A    between atoms: _181  and  _182
REMARK   69  A    between atoms: _181  and  _184
REMARK   70  A    between atoms: _184  and  _185
REMARK   71  A    between atoms: _188  and  _190
REMARK   72  A    between atoms: _190  and  _191
REMARK   73  A    between atoms: _190  and  _193
REMARK   74  A    between atoms: _193  and  _194
REMARK   75  A    between atoms: _201  and  _202
REMARK   76  A    between atoms: _207  and  _209
REMARK   77  A    between atoms: _209  and  _210
REMARK   78  A    between atoms: _209  and  _212
REMARK   79  A    between atoms: _212  and  _213
REMARK   80  A    between atoms: _216  and  _218
REMARK   81  A    between atoms: _218  and  _219
REMARK   82  A    between atoms: _218  and  _221
REMARK   83  A    between atoms: _221  and  _222
REMARK   84  A    between atoms: _225  and  _227
REMARK   85  A    between atoms: _227  and  _228
REMARK   86  A    between atoms: _227  and  _230
REMARK   87  A    between atoms: _230  and  _231
REMARK   88  A    between atoms: _235  and  _236
REMARK   89  A    between atoms: _241  and  _243
REMARK   90  A    between atoms: _243  and  _244
REMARK   91  A    between atoms: _247  and  _249
REMARK   92  A    between atoms: _249  and  _250
REMARK   93  A    between atoms: _249  and  _252
REMARK   94  A    between atoms: _252  and  _253
REMARK   95  A    between atoms: _259  and  _261
REMARK   96  A    between atoms: _261  and  _262
REMARK   97  A    between atoms: _261  and  _264
REMARK   98  A    between atoms: _264  and  _265
REMARK   99  A    between atoms: _265  and  _266
REMARK  100  A    between atoms: _266  and  _267
REMARK  101  A    between atoms: _267  and  _268
REMARK  102  A    between atoms: _272  and  _274
REMARK  103  A    between atoms: _274  and  _275
REMARK  104  A    between atoms: _277  and  _279
REMARK  105  A    between atoms: _279  and  _280
REMARK  106  A    between atoms: _283  and  _285
REMARK  107  A    between atoms: _285  and  _286
REMARK  108  A    between atoms: _285  and  _288
REMARK  109  A    between atoms: _288  and  _289
REMARK  110  A    between atoms: _292  and  _294
REMARK  111  A    between atoms: _294  and  _295
REMARK  112  A    between atoms: _294  and  _297
REMARK  113  A    between atoms: _297  and  _298
REMARK  114  A    between atoms: _300  and  _302
REMARK  115  A    between atoms: _302  and  _303
REMARK  116  A    between atoms: _302  and  _305
REMARK  117  A    between atoms: _305  and  _306
REMARK  118  A    between atoms: _309  and  _311
REMARK  119  A    between atoms: _311  and  _312
REMARK  120  A    between atoms: _311  and  _314
REMARK  121  A    between atoms: _314  and  _315
REMARK  122  A    between atoms: _318  and  _320
REMARK  123  A    between atoms: _320  and  _321
REMARK  124  A    between atoms: _320  and  _323
REMARK  125  A    between atoms: _323  and  _324
REMARK  126  A    between atoms: _327  and  _329
REMARK  127  A    between atoms: _329  and  _330
REMARK  128  A    between atoms: _333  and  _335
REMARK  129  A    between atoms: _335  and  _336
REMARK  130  A    between atoms: _335  and  _338
REMARK  131  A    between atoms: _338  and  _339
REMARK  132  A    between atoms: _339  and  _340
REMARK  133  A    between atoms: _345  and  _347
REMARK  134  A    between atoms: _347  and  _348
REMARK  135  A    between atoms: _352  and  _353
REMARK  136  A    between atoms: _358  and  _360
REMARK  137  A    between atoms: _360  and  _361
REMARK  138  A    between atoms: _360  and  _363
REMARK  139  A    between atoms: _363  and  _364
REMARK  140  A    between atoms: _364  and  _365
REMARK  141  A    between atoms: _365  and  _366
REMARK  142  A    between atoms: _366  and  _367
REMARK  143  A    between atoms: _371  and  _373
REMARK  144  A    between atoms: _373  and  _374
REMARK  145  A    between atoms: _373  and  _376
REMARK  146  A    between atoms: _376  and  _377
REMARK  147  A    between atoms: _377  and  _378
REMARK  148  A    between atoms: _380  and  _382
REMARK  149  A    between atoms: _382  and  _383
REMARK  150  A    between atoms: _382  and  _385
REMARK  151  A    between atoms: _385  and  _386
REMARK  152  A    between atoms: _390  and  _391
REMARK  153  A    between atoms: _396  and  _398
REMARK  154  A    between atoms: _398  and  _399
REMARK  155  A    between atoms: _398  and  _401
REMARK  156  A    between atoms: _401  and  _402
REMARK  157  A    between atoms: _407  and  _409
REMARK  158  A    between atoms: _409  and  _410
REMARK  159  A    between atoms: _409  and  _412
REMARK  160  A    between atoms: _412  and  _413
REMARK  161  A    between atoms: _416  and  _418
REMARK  162  A    between atoms: _418  and  _419
REMARK  163  A    between atoms: _418  and  _421
REMARK  164  A    between atoms: _424  and  _426
REMARK  165  A    between atoms: _426  and  _427
REMARK  166  A    between atoms: _426  and  _429
REMARK  167  A    between atoms: _429  and  _430
REMARK  168  A    between atoms: _430  and  _431
REMARK  169  A    between atoms: _431  and  _432
REMARK  170  A    between atoms: _432  and  _433
REMARK  171  A    between atoms: _437  and  _439
REMARK  172  A    between atoms: _439  and  _440
REMARK  173  A    between atoms: _443  and  _445
REMARK  174  A    between atoms: _445  and  _446
REMARK  175  A    between atoms: _445  and  _448
REMARK  176  A    between atoms: _448  and  _449
REMARK  177  A    between atoms: _452  and  _454
REMARK  178  A    between atoms: _454  and  _455
REMARK  179  A    between atoms: _454  and  _457
REMARK  180  A    between atoms: _457  and  _458
REMARK  181  A    between atoms: _461  and  _463
REMARK  182  A    between atoms: _463  and  _464
REMARK  183  A    between atoms: _463  and  _466
REMARK  184  A    between atoms: _466  and  _467
REMARK  185  A    between atoms: _470  and  _472
REMARK  186  A    between atoms: _472  and  _473
REMARK  187  A    between atoms: _472  and  _475
REMARK  188  A    between atoms: _475  and  _476
REMARK  189  A    between atoms: _476  and  _477
REMARK  190  A    between atoms: _480  and  _482
REMARK  191  A    between atoms: _482  and  _483
REMARK  192  A    between atoms: _482  and  _485
REMARK  193  A    between atoms: _485  and  _486
REMARK  194  A    between atoms: _486  and  _487
REMARK  195  A    between atoms: _487  and  _488
REMARK  196  A    between atoms: _488  and  _489
REMARK  197  A    between atoms: _493  and  _495
REMARK  198  A    between atoms: _495  and  _496
REMARK  199  A    between atoms: _495  and  _498
REMARK  200  A    between atoms: _498  and  _499
REMARK                            x       y       z     vdW  Elec       q    Type
REMARK                         _______ _______ _______ _____ _____    ______ ____
ROOT
ATOM      1  O   HOH     1      -1.405  13.202  20.591  0.00  0.00    +0.000 OA
ENDROOT
TORSDOF 0
REMARK  Name = ../refined-set-2016/2amt/2amt_pocket.pdb
REMARK  200 active torsions:
REMARK  status: ('A' for Active; 'I' for Inactive)
REMARK    1  A    between atoms: _1  and  _3
REMARK    2  A    between atoms: _3  and  _4
REMARK    3  A    between atoms: _3  and  _6
REMARK    4  A    between atoms: _6  and  _7
REMARK    5  A    between atoms: _13  and  _15
REMARK    6  A    between atoms: _24  and  _27
REMARK    7  A    between atoms: _32  and  _33
REMARK    8  A    between atoms: _41  and  _43
REMARK    9  A    between atoms: _43  and  _44
REMARK   10  A    between atoms: _47  and  _49
REMARK   11  A    between atoms: _49  and  _50
REMARK   12  A    between atoms: _49  and  _52
REMARK   13  A    between atoms: _52  and  _53
REMARK   14  A    between atoms: _56  and  _58
REMARK   15  A    between atoms: _58  and  _59
REMARK   16  A    between atoms: _62  and  _64
REMARK   17  A    between atoms: _64  and  _65
REMARK   18  A    between atoms: _64  and  _67
REMARK   19  A    between atoms: _67  and  _68
REMARK   20  A    between atoms: _73  and  _75
REMARK   21  A    between atoms: _75  and  _76
REMARK   22  A    between atoms: _75  and  _78
REMARK   23  A    between atoms: _78  and  _79
REMARK   24  A    between atoms: _81  and  _83
REMARK   25  A    between atoms: _83  and  _84
REMARK   26  A    between atoms: _83  and  _86
REMARK   27  A    between atoms: _86  and  _87
REMARK   28  A    between atoms: _90  and  _92
REMARK   29  A    between atoms: _92  and  _93
REMARK   30  A    between atoms: _95  and  _97
REMARK   31  A    between atoms: _97  and  _98
REMARK   32  A    between atoms: _97  and  _100
REMARK   33  A    between atoms: _100  and  _101
REMARK   34  A    between atoms: _104  and  _106
REMARK   35  A    between atoms: _106  and  _107
REMARK   36  A    between atoms: _106  and  _109
REMARK   37  A    between atoms: _112  and  _114
REMARK   38  A    between atoms: _114  and  _115
REMARK   39  A    between atoms: _114  and  _117
REMARK   40  A    between atoms: _117  and  _118
REMARK   41  A    between atoms: _119  and  ZN_502
REMARK   42  A    between atoms: _123  and  _125
REMARK   43  A    between atoms: _125  and  _126
REMARK   44  A    between atoms: _129  and  _131
REMARK   45  A    between atoms: _131  and  _132
REMARK   46  A    between atoms: _131  and  _134
REMARK   47  A    between atoms: _134  and  _135
REMARK   48  A    between atoms: _138  and  _140
REMARK   49  A    between atoms: _140  and  _141
REMARK   50  A    between atoms: _143  and  _145
REMARK   51  A    between atoms: _145  and  _146
REMARK   52  A    between atoms: _145  and  _148
REMARK   53  A    between atoms: _148  and  _149
REMARK   54  A    between atoms: _152  and  _154
REMARK   55  A    between atoms: _154  and  _155
REMARK   56  A    between atoms: _154  and  _157
REMARK   57  A    between atoms: _157  and  _158
REMARK   58  A    between atoms: _161  and  _163
REMARK   59  A    between atoms: _163  and  _164
REMARK   60  A    between atoms: _166  and  _168
REMARK   61  A    between atoms: _168  and  _169
REMARK   62  A    between atoms: _168  and  _171
REMARK   63  A    between atoms: _171  and  _172
REMARK   64  A    between atoms: _172  and  _173
REMARK   65  A    between atoms: _173  and  _174
REMARK   66  A    between atoms: _174  and  _175
REMARK   67  A    between atoms: _179  and  _181
REMARK   68  A    between atoms: _181  and  _182
REMARK   69  A    between atoms: _181  and  _184
REMARK   70  A    between atoms: _184  and  _185
REMARK   71  A    between atoms: _188  and  _190
REMARK   72  A    between atoms: _190  and  _191
REMARK   73  A    between atoms: _190  and  _193
REMARK   74  A    between atoms: _193  and  _194
REMARK   75  A    between atoms: _201  and  _202
REMARK   76  A    between atoms: _207  and  _209
REMARK   77  A    between atoms: _209  and  _210
REMARK   78  A    between atoms: _209  and  _212
REMARK   79  A    between atoms: _212  and  _213
REMARK   80  A    between atoms: _216  and  _218
REMARK   81  A    between atoms: _218  and  _219
REMARK   82  A    between atoms: _218  and  _221
REMARK   83  A    between atoms: _221  and  _222
REMARK   84  A    between atoms: _225  and  _227
REMARK   85  A    between atoms: _227  and  _228
REMARK   86  A    between atoms: _227  and  _230
REMARK   87  A    between atoms: _230  and  _231
REMARK   88  A    between atoms: _235  and  _236
REMARK   89  A    between atoms: _241  and  _243
REMARK   90  A    between atoms: _243  and  _244
REMARK   91  A    between atoms: _247  and  _249
REMARK   92  A    between atoms: _249  and  _250
REMARK   93  A    between atoms: _249  and  _252
REMARK   94  A    between atoms: _252  and  _253
REMARK   95  A    between atoms: _259  and  _261
REMARK   96  A    between atoms: _261  and  _262
REMARK   97  A    between atoms: _261  and  _264
REMARK   98  A    between atoms: _264  and  _265
REMARK   99  A    between atoms: _265  and  _266
REMARK  100  A    between atoms: _266  and  _267
REMARK  101  A    between atoms: _267  and  _268
REMARK  102  A    between atoms: _272  and  _274
REMARK  103  A    between atoms: _274  and  _275
REMARK  104  A    between atoms: _277  and  _279
REMARK  105  A    between atoms: _279  and  _280
REMARK  106  A    between atoms: _283  and  _285
REMARK  107  A    between atoms: _285  and  _286
REMARK  108  A    between atoms: _285  and  _288
REMARK  109  A    between atoms: _288  and  _289
REMARK  110  A    between atoms: _292  and  _294
REMARK  111  A    between atoms: _294  and  _295
REMARK  112  A    between atoms: _294  and  _297
REMARK  113  A    between atoms: _297  and  _298
REMARK  114  A    between atoms: _300  and  _302
REMARK  115  A    between atoms: _302  and  _303
REMARK  116  A    between atoms: _302  and  _305
REMARK  117  A    between atoms: _305  and  _306
REMARK  118  A    between atoms: _309  and  _311
REMARK  119  A    between atoms: _311  and  _312
REMARK  120  A    between atoms: _311  and  _314
REMARK  121  A    between atoms: _314  and  _315
REMARK  122  A    between atoms: _318  and  _320
REMARK  123  A    between atoms: _320  and  _321
REMARK  124  A    between atoms: _320  and  _323
REMARK  125  A    between atoms: _323  and  _324
REMARK  126  A    between atoms: _327  and  _329
REMARK  127  A    between atoms: _329  and  _330
REMARK  128  A    between atoms: _333  and  _335
REMARK  129  A    between atoms: _335  and  _336
REMARK  130  A    between atoms: _335  and  _338
REMARK  131  A    between atoms: _338  and  _339
REMARK  132  A    between atoms: _339  and  _340
REMARK  133  A    between atoms: _345  and  _347
REMARK  134  A    between atoms: _347  and  _348
REMARK  135  A    between atoms: _352  and  _353
REMARK  136  A    between atoms: _358  and  _360
REMARK  137  A    between atoms: _360  and  _361
REMARK  138  A    between atoms: _360  and  _363
REMARK  139  A    between atoms: _363  and  _364
REMARK  140  A    between atoms: _364  and  _365
REMARK  141  A    between atoms: _365  and  _366
REMARK  142  A    between atoms: _366  and  _367
REMARK  143  A    between atoms: _371  and  _373
REMARK  144  A    between atoms: _373  and  _374
REMARK  145  A    between atoms: _373  and  _376
REMARK  146  A    between atoms: _376  and  _377
REMARK  147  A    between atoms: _377  and  _378
REMARK  148  A    between atoms: _380  and  _382
REMARK  149  A    between atoms: _382  and  _383
REMARK  150  A    between atoms: _382  and  _385
REMARK  151  A    between atoms: _385  and  _386
REMARK  152  A    between atoms: _390  and  _391
REMARK  153  A    between atoms: _396  and  _398
REMARK  154  A    between atoms: _398  and  _399
REMARK  155  A    between atoms: _398  and  _401
REMARK  156  A    between atoms: _401  and  _402
REMARK  157  A    between atoms: _407  and  _409
REMARK  158  A    between atoms: _409  and  _410
REMARK  159  A    between atoms: _409  and  _412
REMARK  160  A    between atoms: _412  and  _413
REMARK  161  A    between atoms: _416  and  _418
REMARK  162  A    between atoms: _418  and  _419
REMARK  163  A    between atoms: _418  and  _421
REMARK  164  A    between atoms: _424  and  _426
REMARK  165  A    between atoms: _426  and  _427
REMARK  166  A    between atoms: _426  and  _429
REMARK  167  A    between atoms: _429  and  _430
REMARK  168  A    between atoms: _430  and  _431
REMARK  169  A    between atoms: _431  and  _432
REMARK  170  A    between atoms: _432  and  _433
REMARK  171  A    between atoms: _437  and  _439
REMARK  172  A    between atoms: _439  and  _440
REMARK  173  A    between atoms: _443  and  _445
REMARK  174  A    between atoms: _445  and  _446
REMARK  175  A    between atoms: _445  and  _448
REMARK  176  A    between atoms: _448  and  _449
REMARK  177  A    between atoms: _452  and  _454
REMARK  178  A    between atoms: _454  and  _455
REMARK  179  A    between atoms: _454  and  _457
REMARK  180  A    between atoms: _457  and  _458
REMARK  181  A    between atoms: _461  and  _463
REMARK  182  A    between atoms: _463  and  _464
REMARK  183  A    between atoms: _463  and  _466
REMARK  184  A    between atoms: _466  and  _467
REMARK  185  A    between atoms: _470  and  _472
REMARK  186  A    between atoms: _472  and  _473
REMARK  187  A    between atoms: _472  and  _475
REMARK  188  A    between atoms: _475  and  _476
REMARK  189  A    between atoms: _476  and  _477
REMARK  190  A    between atoms: _480  and  _482
REMARK  191  A    between atoms: _482  and  _483
REMARK  192  A    between atoms: _482  and  _485
REMARK  193  A    between atoms: _485  and  _486
REMARK  194  A    between atoms: _486  and  _487
REMARK  195  A    between atoms: _487  and  _488
REMARK  196  A    between atoms: _488  and  _489
REMARK  197  A    between atoms: _493  and  _495
REMARK  198  A    between atoms: _495  and  _496
REMARK  199  A    between atoms: _495  and  _498
REMARK  200  A    between atoms: _498  and  _499
REMARK                            x       y       z     vdW  Elec       q    Type
REMARK                         _______ _______ _______ _____ _____    ______ ____
ROOT
ATOM      1  O   HOH     1       9.611   8.215  19.860  0.00  0.00    +0.000 OA
ENDROOT
TORSDOF 0
REMARK  Name = ../refined-set-2016/2amt/2amt_pocket.pdb
REMARK  200 active torsions:
REMARK  status: ('A' for Active; 'I' for Inactive)
REMARK    1  A    between atoms: _1  and  _3
REMARK    2  A    between atoms: _3  and  _4
REMARK    3  A    between atoms: _3  and  _6
REMARK    4  A    between atoms: _6  and  _7
REMARK    5  A    between atoms: _13  and  _15
REMARK    6  A    between atoms: _24  and  _27
REMARK    7  A    between atoms: _32  and  _33
REMARK    8  A    between atoms: _41  and  _43
REMARK    9  A    between atoms: _43  and  _44
REMARK   10  A    between atoms: _47  and  _49
REMARK   11  A    between atoms: _49  and  _50
REMARK   12  A    between atoms: _49  and  _52
REMARK   13  A    between atoms: _52  and  _53
REMARK   14  A    between atoms: _56  and  _58
REMARK   15  A    between atoms: _58  and  _59
REMARK   16  A    between atoms: _62  and  _64
REMARK   17  A    between atoms: _64  and  _65
REMARK   18  A    between atoms: _64  and  _67
REMARK   19  A    between atoms: _67  and  _68
REMARK   20  A    between atoms: _73  and  _75
REMARK   21  A    between atoms: _75  and  _76
REMARK   22  A    between atoms: _75  and  _78
REMARK   23  A    between atoms: _78  and  _79
REMARK   24  A    between atoms: _81  and  _83
REMARK   25  A    between atoms: _83  and  _84
REMARK   26  A    between atoms: _83  and  _86
REMARK   27  A    between atoms: _86  and  _87
REMARK   28  A    between atoms: _90  and  _92
REMARK   29  A    between atoms: _92  and  _93
REMARK   30  A    between atoms: _95  and  _97
REMARK   31  A    between atoms: _97  and  _98
REMARK   32  A    between atoms: _97  and  _100
REMARK   33  A    between atoms: _100  and  _101
REMARK   34  A    between atoms: _104  and  _106
REMARK   35  A    between atoms: _106  and  _107
REMARK   36  A    between atoms: _106  and  _109
REMARK   37  A    between atoms: _112  and  _114
REMARK   38  A    between atoms: _114  and  _115
REMARK   39  A    between atoms: _114  and  _117
REMARK   40  A    between atoms: _117  and  _118
REMARK   41  A    between atoms: _119  and  ZN_502
REMARK   42  A    between atoms: _123  and  _125
REMARK   43  A    between atoms: _125  and  _126
REMARK   44  A    between atoms: _129  and  _131
REMARK   45  A    between atoms: _131  and  _132
REMARK   46  A    between atoms: _131  and  _134
REMARK   47  A    between atoms: _134  and  _135
REMARK   48  A    between atoms: _138  and  _140
REMARK   49  A    between atoms: _140  and  _141
REMARK   50  A    between atoms: _143  and  _145
REMARK   51  A    between atoms: _145  and  _146
REMARK   52  A    between atoms: _145  and  _148
REMARK   53  A    between atoms: _148  and  _149
REMARK   54  A    between atoms: _152  and  _154
REMARK   55  A    between atoms: _154  and  _155
REMARK   56  A    between atoms: _154  and  _157
REMARK   57  A    between atoms: _157  and  _158
REMARK   58  A    between atoms: _161  and  _163
REMARK   59  A    between atoms: _163  and  _164
REMARK   60  A    between atoms: _166  and  _168
REMARK   61  A    between atoms: _168  and  _169
REMARK   62  A    between atoms: _168  and  _171
REMARK   63  A    between atoms: _171  and  _172
REMARK   64  A    between atoms: _172  and  _173
REMARK   65  A    between atoms: _173  and  _174
REMARK   66  A    between atoms: _174  and  _175
REMARK   67  A    between atoms: _179  and  _181
REMARK   68  A    between atoms: _181  and  _182
REMARK   69  A    between atoms: _181  and  _184
REMARK   70  A    between atoms: _184  and  _185
REMARK   71  A    between atoms: _188  and  _190
REMARK   72  A    between atoms: _190  and  _191
REMARK   73  A    between atoms: _190  and  _193
REMARK   74  A    between atoms: _193  and  _194
REMARK   75  A    between atoms: _201  and  _202
REMARK   76  A    between atoms: _207  and  _209
REMARK   77  A    between atoms: _209  and  _210
REMARK   78  A    between atoms: _209  and  _212
REMARK   79  A    between atoms: _212  and  _213
REMARK   80  A    between atoms: _216  and  _218
REMARK   81  A    between atoms: _218  and  _219
REMARK   82  A    between atoms: _218  and  _221
REMARK   83  A    between atoms: _221  and  _222
REMARK   84  A    between atoms: _225  and  _227
REMARK   85  A    between atoms: _227  and  _228
REMARK   86  A    between atoms: _227  and  _230
REMARK   87  A    between atoms: _230  and  _231
REMARK   88  A    between atoms: _235  and  _236
REMARK   89  A    between atoms: _241  and  _243
REMARK   90  A    between atoms: _243  and  _244
REMARK   91  A    between atoms: _247  and  _249
REMARK   92  A    between atoms: _249  and  _250
REMARK   93  A    between atoms: _249  and  _252
REMARK   94  A    between atoms: _252  and  _253
REMARK   95  A    between atoms: _259  and  _261
REMARK   96  A    between atoms: _261  and  _262
REMARK   97  A    between atoms: _261  and  _264
REMARK   98  A    between atoms: _264  and  _265
REMARK   99  A    between atoms: _265  and  _266
REMARK  100  A    between atoms: _266  and  _267
REMARK  101  A    between atoms: _267  and  _268
REMARK  102  A    between atoms: _272  and  _274
REMARK  103  A    between atoms: _274  and  _275
REMARK  104  A    between atoms: _277  and  _279
REMARK  105  A    between atoms: _279  and  _280
REMARK  106  A    between atoms: _283  and  _285
REMARK  107  A    between atoms: _285  and  _286
REMARK  108  A    between atoms: _285  and  _288
REMARK  109  A    between atoms: _288  and  _289
REMARK  110  A    between atoms: _292  and  _294
REMARK  111  A    between atoms: _294  and  _295
REMARK  112  A    between atoms: _294  and  _297
REMARK  113  A    between atoms: _297  and  _298
REMARK  114  A    between atoms: _300  and  _302
REMARK  115  A    between atoms: _302  and  _303
REMARK  116  A    between atoms: _302  and  _305
REMARK  117  A    between atoms: _305  and  _306
REMARK  118  A    between atoms: _309  and  _311
REMARK  119  A    between atoms: _311  and  _312
REMARK  120  A    between atoms: _311  and  _314
REMARK  121  A    between atoms: _314  and  _315
REMARK  122  A    between atoms: _318  and  _320
REMARK  123  A    between atoms: _320  and  _321
REMARK  124  A    between atoms: _320  and  _323
REMARK  125  A    between atoms: _323  and  _324
REMARK  126  A    between atoms: _327  and  _329
REMARK  127  A    between atoms: _329  and  _330
REMARK  128  A    between atoms: _333  and  _335
REMARK  129  A    between atoms: _335  and  _336
REMARK  130  A    between atoms: _335  and  _338
REMARK  131  A    between atoms: _338  and  _339
REMARK  132  A    between atoms: _339  and  _340
REMARK  133  A    between atoms: _345  and  _347
REMARK  134  A    between atoms: _347  and  _348
REMARK  135  A    between atoms: _352  and  _353
REMARK  136  A    between atoms: _358  and  _360
REMARK  137  A    between atoms: _360  and  _361
REMARK  138  A    between atoms: _360  and  _363
REMARK  139  A    between atoms: _363  and  _364
REMARK  140  A    between atoms: _364  and  _365
REMARK  141  A    between atoms: _365  and  _366
REMARK  142  A    between atoms: _366  and  _367
REMARK  143  A    between atoms: _371  and  _373
REMARK  144  A    between atoms: _373  and  _374
REMARK  145  A    between atoms: _373  and  _376
REMARK  146  A    between atoms: _376  and  _377
REMARK  147  A    between atoms: _377  and  _378
REMARK  148  A    between atoms: _380  and  _382
REMARK  149  A    between atoms: _382  and  _383
REMARK  150  A    between atoms: _382  and  _385
REMARK  151  A    between atoms: _385  and  _386
REMARK  152  A    between atoms: _390  and  _391
REMARK  153  A    between atoms: _396  and  _398
REMARK  154  A    between atoms: _398  and  _399
REMARK  155  A    between atoms: _398  and  _401
REMARK  156  A    between atoms: _401  and  _402
REMARK  157  A    between atoms: _407  and  _409
REMARK  158  A    between atoms: _409  and  _410
REMARK  159  A    between atoms: _409  and  _412
REMARK  160  A    between atoms: _412  and  _413
REMARK  161  A    between atoms: _416  and  _418
REMARK  162  A    between atoms: _418  and  _419
REMARK  163  A    between atoms: _418  and  _421
REMARK  164  A    between atoms: _424  and  _426
REMARK  165  A    between atoms: _426  and  _427
REMARK  166  A    between atoms: _426  and  _429
REMARK  167  A    between atoms: _429  and  _430
REMARK  168  A    between atoms: _430  and  _431
REMARK  169  A    between atoms: _431  and  _432
REMARK  170  A    between atoms: _432  and  _433
REMARK  171  A    between atoms: _437  and  _439
REMARK  172  A    between atoms: _439  and  _440
REMARK  173  A    between atoms: _443  and  _445
REMARK  174  A    between atoms: _445  and  _446
REMARK  175  A    between atoms: _445  and  _448
REMARK  176  A    between atoms: _448  and  _449
REMARK  177  A    between atoms: _452  and  _454
REMARK  178  A    between atoms: _454  and  _455
REMARK  179  A    between atoms: _454  and  _457
REMARK  180  A    between atoms: _457  and  _458
REMARK  181  A    between atoms: _461  and  _463
REMARK  182  A    between atoms: _463  and  _464
REMARK  183  A    between atoms: _463  and  _466
REMARK  184  A    between atoms: _466  and  _467
REMARK  185  A    between atoms: _470  and  _472
REMARK  186  A    between atoms: _472  and  _473
REMARK  187  A    between atoms: _472  and  _475
REMARK  188  A    between atoms: _475  and  _476
REMARK  189  A    between atoms: _476  and  _477
REMARK  190  A    between atoms: _480  and  _482
REMARK  191  A    between atoms: _482  and  _483
REMARK  192  A    between atoms: _482  and  _485
REMARK  193  A    between atoms: _485  and  _486
REMARK  194  A    between atoms: _486  and  _487
REMARK  195  A    between atoms: _487  and  _488
REMARK  196  A    between atoms: _488  and  _489
REMARK  197  A    between atoms: _493  and  _495
REMARK  198  A    between atoms: _495  and  _496
REMARK  199  A    between atoms: _495  and  _498
REMARK  200  A    between atoms: _498  and  _499
REMARK                            x       y       z     vdW  Elec       q    Type
REMARK                         _______ _______ _______ _____ _____    ______ ____
ROOT
ATOM      1  O   HOH     1       9.088  10.870  18.191  0.00  0.00    +0.000 OA
ENDROOT
TORSDOF 0
REMARK  Name = ../refined-set-2016/2amt/2amt_pocket.pdb
REMARK  200 active torsions:
REMARK  status: ('A' for Active; 'I' for Inactive)
REMARK    1  A    between atoms: _1  and  _3
REMARK    2  A    between atoms: _3  and  _4
REMARK    3  A    between atoms: _3  and  _6
REMARK    4  A    between atoms: _6  and  _7
REMARK    5  A    between atoms: _13  and  _15
REMARK    6  A    between atoms: _24  and  _27
REMARK    7  A    between atoms: _32  and  _33
REMARK    8  A    between atoms: _41  and  _43
REMARK    9  A    between atoms: _43  and  _44
REMARK   10  A    between atoms: _47  and  _49
REMARK   11  A    between atoms: _49  and  _50
REMARK   12  A    between atoms: _49  and  _52
REMARK   13  A    between atoms: _52  and  _53
REMARK   14  A    between atoms: _56  and  _58
REMARK   15  A    between atoms: _58  and  _59
REMARK   16  A    between atoms: _62  and  _64
REMARK   17  A    between atoms: _64  and  _65
REMARK   18  A    between atoms: _64  and  _67
REMARK   19  A    between atoms: _67  and  _68
REMARK   20  A    between atoms: _73  and  _75
REMARK   21  A    between atoms: _75  and  _76
REMARK   22  A    between atoms: _75  and  _78
REMARK   23  A    between atoms: _78  and  _79
REMARK   24  A    between atoms: _81  and  _83
REMARK   25  A    between atoms: _83  and  _84
REMARK   26  A    between atoms: _83  and  _86
REMARK   27  A    between atoms: _86  and  _87
REMARK   28  A    between atoms: _90  and  _92
REMARK   29  A    between atoms: _92  and  _93
REMARK   30  A    between atoms: _95  and  _97
REMARK   31  A    between atoms: _97  and  _98
REMARK   32  A    between atoms: _97  and  _100
REMARK   33  A    between atoms: _100  and  _101
REMARK   34  A    between atoms: _104  and  _106
REMARK   35  A    between atoms: _106  and  _107
REMARK   36  A    between atoms: _106  and  _109
REMARK   37  A    between atoms: _112  and  _114
REMARK   38  A    between atoms: _114  and  _115
REMARK   39  A    between atoms: _114  and  _117
REMARK   40  A    between atoms: _117  and  _118
REMARK   41  A    between atoms: _119  and  ZN_502
REMARK   42  A    between atoms: _123  and  _125
REMARK   43  A    between atoms: _125  and  _126
REMARK   44  A    between atoms: _129  and  _131
REMARK   45  A    between atoms: _131  and  _132
REMARK   46  A    between atoms: _131  and  _134
REMARK   47  A    between atoms: _134  and  _135
REMARK   48  A    between atoms: _138  and  _140
REMARK   49  A    between atoms: _140  and  _141
REMARK   50  A    between atoms: _143  and  _145
REMARK   51  A    between atoms: _145  and  _146
REMARK   52  A    between atoms: _145  and  _148
REMARK   53  A    between atoms: _148  and  _149
REMARK   54  A    between atoms: _152  and  _154
REMARK   55  A    between atoms: _154  and  _155
REMARK   56  A    between atoms: _154  and  _157
REMARK   57  A    between atoms: _157  and  _158
REMARK   58  A    between atoms: _161  and  _163
REMARK   59  A    between atoms: _163  and  _164
REMARK   60  A    between atoms: _166  and  _168
REMARK   61  A    between atoms: _168  and  _169
REMARK   62  A    between atoms: _168  and  _171
REMARK   63  A    between atoms: _171  and  _172
REMARK   64  A    between atoms: _172  and  _173
REMARK   65  A    between atoms: _173  and  _174
REMARK   66  A    between atoms: _174  and  _175
REMARK   67  A    between atoms: _179  and  _181
REMARK   68  A    between atoms: _181  and  _182
REMARK   69  A    between atoms: _181  and  _184
REMARK   70  A    between atoms: _184  and  _185
REMARK   71  A    between atoms: _188  and  _190
REMARK   72  A    between atoms: _190  and  _191
REMARK   73  A    between atoms: _190  and  _193
REMARK   74  A    between atoms: _193  and  _194
REMARK   75  A    between atoms: _201  and  _202
REMARK   76  A    between atoms: _207  and  _209
REMARK   77  A    between atoms: _209  and  _210
REMARK   78  A    between atoms: _209  and  _212
REMARK   79  A    between atoms: _212  and  _213
REMARK   80  A    between atoms: _216  and  _218
REMARK   81  A    between atoms: _218  and  _219
REMARK   82  A    between atoms: _218  and  _221
REMARK   83  A    between atoms: _221  and  _222
REMARK   84  A    between atoms: _225  and  _227
REMARK   85  A    between atoms: _227  and  _228
REMARK   86  A    between atoms: _227  and  _230
REMARK   87  A    between atoms: _230  and  _231
REMARK   88  A    between atoms: _235  and  _236
REMARK   89  A    between atoms: _241  and  _243
REMARK   90  A    between atoms: _243  and  _244
REMARK   91  A    between atoms: _247  and  _249
REMARK   92  A    between atoms: _249  and  _250
REMARK   93  A    between atoms: _249  and  _252
REMARK   94  A    between atoms: _252  and  _253
REMARK   95  A    between atoms: _259  and  _261
REMARK   96  A    between atoms: _261  and  _262
REMARK   97  A    between atoms: _261  and  _264
REMARK   98  A    between atoms: _264  and  _265
REMARK   99  A    between atoms: _265  and  _266
REMARK  100  A    between atoms: _266  and  _267
REMARK  101  A    between atoms: _267  and  _268
REMARK  102  A    between atoms: _272  and  _274
REMARK  103  A    between atoms: _274  and  _275
REMARK  104  A    between atoms: _277  and  _279
REMARK  105  A    between atoms: _279  and  _280
REMARK  106  A    between atoms: _283  and  _285
REMARK  107  A    between atoms: _285  and  _286
REMARK  108  A    between atoms: _285  and  _288
REMARK  109  A    between atoms: _288  and  _289
REMARK  110  A    between atoms: _292  and  _294
REMARK  111  A    between atoms: _294  and  _295
REMARK  112  A    between atoms: _294  and  _297
REMARK  113  A    between atoms: _297  and  _298
REMARK  114  A    between atoms: _300  and  _302
REMARK  115  A    between atoms: _302  and  _303
REMARK  116  A    between atoms: _302  and  _305
REMARK  117  A    between atoms: _305  and  _306
REMARK  118  A    between atoms: _309  and  _311
REMARK  119  A    between atoms: _311  and  _312
REMARK  120  A    between atoms: _311  and  _314
REMARK  121  A    between atoms: _314  and  _315
REMARK  122  A    between atoms: _318  and  _320
REMARK  123  A    between atoms: _320  and  _321
REMARK  124  A    between atoms: _320  and  _323
REMARK  125  A    between atoms: _323  and  _324
REMARK  126  A    between atoms: _327  and  _329
REMARK  127  A    between atoms: _329  and  _330
REMARK  128  A    between atoms: _333  and  _335
REMARK  129  A    between atoms: _335  and  _336
REMARK  130  A    between atoms: _335  and  _338
REMARK  131  A    between atoms: _338  and  _339
REMARK  132  A    between atoms: _339  and  _340
REMARK  133  A    between atoms: _345  and  _347
REMARK  134  A    between atoms: _347  and  _348
REMARK  135  A    between atoms: _352  and  _353
REMARK  136  A    between atoms: _358  and  _360
REMARK  137  A    between atoms: _360  and  _361
REMARK  138  A    between atoms: _360  and  _363
REMARK  139  A    between atoms: _363  and  _364
REMARK  140  A    between atoms: _364  and  _365
REMARK  141  A    between atoms: _365  and  _366
REMARK  142  A    between atoms: _366  and  _367
REMARK  143  A    between atoms: _371  and  _373
REMARK  144  A    between atoms: _373  and  _374
REMARK  145  A    between atoms: _373  and  _376
REMARK  146  A    between atoms: _376  and  _377
REMARK  147  A    between atoms: _377  and  _378
REMARK  148  A    between atoms: _380  and  _382
REMARK  149  A    between atoms: _382  and  _383
REMARK  150  A    between atoms: _382  and  _385
REMARK  151  A    between atoms: _385  and  _386
REMARK  152  A    between atoms: _390  and  _391
REMARK  153  A    between atoms: _396  and  _398
REMARK  154  A    between atoms: _398  and  _399
REMARK  155  A    between atoms: _398  and  _401
REMARK  156  A    between atoms: _401  and  _402
REMARK  157  A    between atoms: _407  and  _409
REMARK  158  A    between atoms: _409  and  _410
REMARK  159  A    between atoms: _409  and  _412
REMARK  160  A    between atoms: _412  and  _413
REMARK  161  A    between atoms: _416  and  _418
REMARK  162  A    between atoms: _418  and  _419
REMARK  163  A    between atoms: _418  and  _421
REMARK  164  A    between atoms: _424  and  _426
REMARK  165  A    between atoms: _426  and  _427
REMARK  166  A    between atoms: _426  and  _429
REMARK  167  A    between atoms: _429  and  _430
REMARK  168  A    between atoms: _430  and  _431
REMARK  169  A    between atoms: _431  and  _432
REMARK  170  A    between atoms: _432  and  _433
REMARK  171  A    between atoms: _437  and  _439
REMARK  172  A    between atoms: _439  and  _440
REMARK  173  A    between atoms: _443  and  _445
REMARK  174  A    between atoms: _445  and  _446
REMARK  175  A    between atoms: _445  and  _448
REMARK  176  A    between atoms: _448  and  _449
REMARK  177  A    between atoms: _452  and  _454
REMARK  178  A    between atoms: _454  and  _455
REMARK  179  A    between atoms: _454  and  _457
REMARK  180  A    between atoms: _457  and  _458
REMARK  181  A    between atoms: _461  and  _463
REMARK  182  A    between atoms: _463  and  _464
REMARK  183  A    between atoms: _463  and  _466
REMARK  184  A    between atoms: _466  and  _467
REMARK  185  A    between atoms: _470  and  _472
REMARK  186  A    between atoms: _472  and  _473
REMARK  187  A    between atoms: _472  and  _475
REMARK  188  A    between atoms: _475  and  _476
REMARK  189  A    between atoms: _476  and  _477
REMARK  190  A    between atoms: _480  and  _482
REMARK  191  A    between atoms: _482  and  _483
REMARK  192  A    between atoms: _482  and  _485
REMARK  193  A    between atoms: _485  and  _486
REMARK  194  A    between atoms: _486  and  _487
REMARK  195  A    between atoms: _487  and  _488
REMARK  196  A    between atoms: _488  and  _489
REMARK  197  A    between atoms: _493  and  _495
REMARK  198  A    between atoms: _495  and  _496
REMARK  199  A    between atoms: _495  and  _498
REMARK  200  A    between atoms: _498  and  _499
REMARK                            x       y       z     vdW  Elec       q    Type
REMARK                         _______ _______ _______ _____ _____    ______ ____
ROOT
ATOM      1  O   HOH     1      -0.112  12.975  11.007  0.00  0.00    +0.000 OA
ENDROOT
TORSDOF 0
REMARK  Name = ../refined-set-2016/2amt/2amt_pocket.pdb
REMARK  200 active torsions:
REMARK  status: ('A' for Active; 'I' for Inactive)
REMARK    1  A    between atoms: _1  and  _3
REMARK    2  A    between atoms: _3  and  _4
REMARK    3  A    between atoms: _3  and  _6
REMARK    4  A    between atoms: _6  and  _7
REMARK    5  A    between atoms: _13  and  _15
REMARK    6  A    between atoms: _24  and  _27
REMARK    7  A    between atoms: _32  and  _33
REMARK    8  A    between atoms: _41  and  _43
REMARK    9  A    between atoms: _43  and  _44
REMARK   10  A    between atoms: _47  and  _49
REMARK   11  A    between atoms: _49  and  _50
REMARK   12  A    between atoms: _49  and  _52
REMARK   13  A    between atoms: _52  and  _53
REMARK   14  A    between atoms: _56  and  _58
REMARK   15  A    between atoms: _58  and  _59
REMARK   16  A    between atoms: _62  and  _64
REMARK   17  A    between atoms: _64  and  _65
REMARK   18  A    between atoms: _64  and  _67
REMARK   19  A    between atoms: _67  and  _68
REMARK   20  A    between atoms: _73  and  _75
REMARK   21  A    between atoms: _75  and  _76
REMARK   22  A    between atoms: _75  and  _78
REMARK   23  A    between atoms: _78  and  _79
REMARK   24  A    between atoms: _81  and  _83
REMARK   25  A    between atoms: _83  and  _84
REMARK   26  A    between atoms: _83  and  _86
REMARK   27  A    between atoms: _86  and  _87
REMARK   28  A    between atoms: _90  and  _92
REMARK   29  A    between atoms: _92  and  _93
REMARK   30  A    between atoms: _95  and  _97
REMARK   31  A    between atoms: _97  and  _98
REMARK   32  A    between atoms: _97  and  _100
REMARK   33  A    between atoms: _100  and  _101
REMARK   34  A    between atoms: _104  and  _106
REMARK   35  A    between atoms: _106  and  _107
REMARK   36  A    between atoms: _106  and  _109
REMARK   37  A    between atoms: _112  and  _114
REMARK   38  A    between atoms: _114  and  _115
REMARK   39  A    between atoms: _114  and  _117
REMARK   40  A    between atoms: _117  and  _118
REMARK   41  A    between atoms: _119  and  ZN_502
REMARK   42  A    between atoms: _123  and  _125
REMARK   43  A    between atoms: _125  and  _126
REMARK   44  A    between atoms: _129  and  _131
REMARK   45  A    between atoms: _131  and  _132
REMARK   46  A    between atoms: _131  and  _134
REMARK   47  A    between atoms: _134  and  _135
REMARK   48  A    between atoms: _138  and  _140
REMARK   49  A    between atoms: _140  and  _141
REMARK   50  A    between atoms: _143  and  _145
REMARK   51  A    between atoms: _145  and  _146
REMARK   52  A    between atoms: _145  and  _148
REMARK   53  A    between atoms: _148  and  _149
REMARK   54  A    between atoms: _152  and  _154
REMARK   55  A    between atoms: _154  and  _155
REMARK   56  A    between atoms: _154  and  _157
REMARK   57  A    between atoms: _157  and  _158
REMARK   58  A    between atoms: _161  and  _163
REMARK   59  A    between atoms: _163  and  _164
REMARK   60  A    between atoms: _166  and  _168
REMARK   61  A    between atoms: _168  and  _169
REMARK   62  A    between atoms: _168  and  _171
REMARK   63  A    between atoms: _171  and  _172
REMARK   64  A    between atoms: _172  and  _173
REMARK   65  A    between atoms: _173  and  _174
REMARK   66  A    between atoms: _174  and  _175
REMARK   67  A    between atoms: _179  and  _181
REMARK   68  A    between atoms: _181  and  _182
REMARK   69  A    between atoms: _181  and  _184
REMARK   70  A    between atoms: _184  and  _185
REMARK   71  A    between atoms: _188  and  _190
REMARK   72  A    between atoms: _190  and  _191
REMARK   73  A    between atoms: _190  and  _193
REMARK   74  A    between atoms: _193  and  _194
REMARK   75  A    between atoms: _201  and  _202
REMARK   76  A    between atoms: _207  and  _209
REMARK   77  A    between atoms: _209  and  _210
REMARK   78  A    between atoms: _209  and  _212
REMARK   79  A    between atoms: _212  and  _213
REMARK   80  A    between atoms: _216  and  _218
REMARK   81  A    between atoms: _218  and  _219
REMARK   82  A    between atoms: _218  and  _221
REMARK   83  A    between atoms: _221  and  _222
REMARK   84  A    between atoms: _225  and  _227
REMARK   85  A    between atoms: _227  and  _228
REMARK   86  A    between atoms: _227  and  _230
REMARK   87  A    between atoms: _230  and  _231
REMARK   88  A    between atoms: _235  and  _236
REMARK   89  A    between atoms: _241  and  _243
REMARK   90  A    between atoms: _243  and  _244
REMARK   91  A    between atoms: _247  and  _249
REMARK   92  A    between atoms: _249  and  _250
REMARK   93  A    between atoms: _249  and  _252
REMARK   94  A    between atoms: _252  and  _253
REMARK   95  A    between atoms: _259  and  _261
REMARK   96  A    between atoms: _261  and  _262
REMARK   97  A    between atoms: _261  and  _264
REMARK   98  A    between atoms: _264  and  _265
REMARK   99  A    between atoms: _265  and  _266
REMARK  100  A    between atoms: _266  and  _267
REMARK  101  A    between atoms: _267  and  _268
REMARK  102  A    between atoms: _272  and  _274
REMARK  103  A    between atoms: _274  and  _275
REMARK  104  A    between atoms: _277  and  _279
REMARK  105  A    between atoms: _279  and  _280
REMARK  106  A    between atoms: _283  and  _285
REMARK  107  A    between atoms: _285  and  _286
REMARK  108  A    between atoms: _285  and  _288
REMARK  109  A    between atoms: _288  and  _289
REMARK  110  A    between atoms: _292  and  _294
REMARK  111  A    between atoms: _294  and  _295
REMARK  112  A    between atoms: _294  and  _297
REMARK  113  A    between atoms: _297  and  _298
REMARK  114  A    between atoms: _300  and  _302
REMARK  115  A    between atoms: _302  and  _303
REMARK  116  A    between atoms: _302  and  _305
REMARK  117  A    between atoms: _305  and  _306
REMARK  118  A    between atoms: _309  and  _311
REMARK  119  A    between atoms: _311  and  _312
REMARK  120  A    between atoms: _311  and  _314
REMARK  121  A    between atoms: _314  and  _315
REMARK  122  A    between atoms: _318  and  _320
REMARK  123  A    between atoms: _320  and  _321
REMARK  124  A    between atoms: _320  and  _323
REMARK  125  A    between atoms: _323  and  _324
REMARK  126  A    between atoms: _327  and  _329
REMARK  127  A    between atoms: _329  and  _330
REMARK  128  A    between atoms: _333  and  _335
REMARK  129  A    between atoms: _335  and  _336
REMARK  130  A    between atoms: _335  and  _338
REMARK  131  A    between atoms: _338  and  _339
REMARK  132  A    between atoms: _339  and  _340
REMARK  133  A    between atoms: _345  and  _347
REMARK  134  A    between atoms: _347  and  _348
REMARK  135  A    between atoms: _352  and  _353
REMARK  136  A    between atoms: _358  and  _360
REMARK  137  A    between atoms: _360  and  _361
REMARK  138  A    between atoms: _360  and  _363
REMARK  139  A    between atoms: _363  and  _364
REMARK  140  A    between atoms: _364  and  _365
REMARK  141  A    between atoms: _365  and  _366
REMARK  142  A    between atoms: _366  and  _367
REMARK  143  A    between atoms: _371  and  _373
REMARK  144  A    between atoms: _373  and  _374
REMARK  145  A    between atoms: _373  and  _376
REMARK  146  A    between atoms: _376  and  _377
REMARK  147  A    between atoms: _377  and  _378
REMARK  148  A    between atoms: _380  and  _382
REMARK  149  A    between atoms: _382  and  _383
REMARK  150  A    between atoms: _382  and  _385
REMARK  151  A    between atoms: _385  and  _386
REMARK  152  A    between atoms: _390  and  _391
REMARK  153  A    between atoms: _396  and  _398
REMARK  154  A    between atoms: _398  and  _399
REMARK  155  A    between atoms: _398  and  _401
REMARK  156  A    between atoms: _401  and  _402
REMARK  157  A    between atoms: _407  and  _409
REMARK  158  A    between atoms: _409  and  _410
REMARK  159  A    between atoms: _409  and  _412
REMARK  160  A    between atoms: _412  and  _413
REMARK  161  A    between atoms: _416  and  _418
REMARK  162  A    between atoms: _418  and  _419
REMARK  163  A    between atoms: _418  and  _421
REMARK  164  A    between atoms: _424  and  _426
REMARK  165  A    between atoms: _426  and  _427
REMARK  166  A    between atoms: _426  and  _429
REMARK  167  A    between atoms: _429  and  _430
REMARK  168  A    between atoms: _430  and  _431
REMARK  169  A    between atoms: _431  and  _432
REMARK  170  A    between atoms: _432  and  _433
REMARK  171  A    between atoms: _437  and  _439
REMARK  172  A    between atoms: _439  and  _440
REMARK  173  A    between atoms: _443  and  _445
REMARK  174  A    between atoms: _445  and  _446
REMARK  175  A    between atoms: _445  and  _448
REMARK  176  A    between atoms: _448  and  _449
REMARK  177  A    between atoms: _452  and  _454
REMARK  178  A    between atoms: _454  and  _455
REMARK  179  A    between atoms: _454  and  _457
REMARK  180  A    between atoms: _457  and  _458
REMARK  181  A    between atoms: _461  and  _463
REMARK  182  A    between atoms: _463  and  _464
REMARK  183  A    between atoms: _463  and  _466
REMARK  184  A    between atoms: _466  and  _467
REMARK  185  A    between atoms: _470  and  _472
REMARK  186  A    between atoms: _472  and  _473
REMARK  187  A    between atoms: _472  and  _475
REMARK  188  A    between atoms: _475  and  _476
REMARK  189  A    between atoms: _476  and  _477
REMARK  190  A    between atoms: _480  and  _482
REMARK  191  A    between atoms: _482  and  _483
REMARK  192  A    between atoms: _482  and  _485
REMARK  193  A    between atoms: _485  and  _486
REMARK  194  A    between atoms: _486  and  _487
REMARK  195  A    between atoms: _487  and  _488
REMARK  196  A    between atoms: _488  and  _489
REMARK  197  A    between atoms: _493  and  _495
REMARK  198  A    between atoms: _495  and  _496
REMARK  199  A    between atoms: _495  and  _498
REMARK  200  A    between atoms: _498  and  _499
REMARK                            x       y       z     vdW  Elec       q    Type
REMARK                         _______ _______ _______ _____ _____    ______ ____
ROOT
ATOM      1  O   HOH     1       0.921  14.527  20.917  0.00  0.00    +0.000 OA
ENDROOT
TORSDOF 0
