REMARK  Name = ../refined-set-2016/4o0y/4o0y_pocket.pdb
REMARK  217 active torsions:
REMARK  status: ('A' for Active; 'I' for Inactive)
REMARK    1  A    between atoms: _1  and  _3
REMARK    2  A    between atoms: _3  and  _4
REMARK    3  A    between atoms: _3  and  _6
REMARK    4  A    between atoms: _6  and  _7
REMARK    5  A    between atoms: _7  and  _8
REMARK    6  A    between atoms: _8  and  _9
REMARK    7  A    between atoms: _9  and  _10
REMARK    8  A    between atoms: _14  and  _16
REMARK    9  A    between atoms: _16  and  _17
REMARK   10  A    between atoms: _16  and  _19
REMARK   11  A    between atoms: _19  and  _20
REMARK   12  A    between atoms: _23  and  _25
REMARK   13  A    between atoms: _25  and  _26
REMARK   14  A    between atoms: _28  and  _30
REMARK   15  A    between atoms: _30  and  _31
REMARK   16  A    between atoms: _30  and  _33
REMARK   17  A    between atoms: _33  and  _34
REMARK   18  A    between atoms: _34  and  _35
REMARK   19  A    between atoms: _38  and  _40
REMARK   20  A    between atoms: _40  and  _41
REMARK   21  A    between atoms: _43  and  _45
REMARK   22  A    between atoms: _45  and  _46
REMARK   23  A    between atoms: _45  and  _48
REMARK   24  A    between atoms: _48  and  _49
REMARK   25  A    between atoms: _51  and  _53
REMARK   26  A    between atoms: _53  and  _54
REMARK   27  A    between atoms: _53  and  _56
REMARK   28  A    between atoms: _56  and  _57
REMARK   29  A    between atoms: _60  and  _62
REMARK   30  A    between atoms: _62  and  _63
REMARK   31  A    between atoms: _65  and  _67
REMARK   32  A    between atoms: _67  and  _68
REMARK   33  A    between atoms: _67  and  _70
REMARK   34  A    between atoms: _70  and  _71
REMARK   35  A    between atoms: _74  and  _76
REMARK   36  A    between atoms: _76  and  _77
REMARK   37  A    between atoms: _76  and  _79
REMARK   38  A    between atoms: _82  and  _84
REMARK   39  A    between atoms: _84  and  _85
REMARK   40  A    between atoms: _84  and  _87
REMARK   41  A    between atoms: _89  and  _91
REMARK   42  A    between atoms: _91  and  _92
REMARK   43  A    between atoms: _91  and  _94
REMARK   44  A    between atoms: _94  and  _95
REMARK   45  A    between atoms: _98  and  _100
REMARK   46  A    between atoms: _100  and  _101
REMARK   47  A    between atoms: _100  and  _103
REMARK   48  A    between atoms: _106  and  _108
REMARK   49  A    between atoms: _108  and  _109
REMARK   50  A    between atoms: _112  and  _114
REMARK   51  A    between atoms: _114  and  _115
REMARK   52  A    between atoms: _114  and  _117
REMARK   53  A    between atoms: _120  and  _122
REMARK   54  A    between atoms: _122  and  _123
REMARK   55  A    between atoms: _122  and  _125
REMARK   56  A    between atoms: _125  and  _126
REMARK   57  A    between atoms: _126  and  _127
REMARK   58  A    between atoms: _127  and  _128
REMARK   59  A    between atoms: _128  and  _129
REMARK   60  A    between atoms: _133  and  _135
REMARK   61  A    between atoms: _135  and  _136
REMARK   62  A    between atoms: _135  and  _138
REMARK   63  A    between atoms: _138  and  _139
REMARK   64  A    between atoms: _139  and  _140
REMARK   65  A    between atoms: _140  and  _141
REMARK   66  A    between atoms: _141  and  _142
REMARK   67  A    between atoms: _146  and  _148
REMARK   68  A    between atoms: _148  and  _149
REMARK   69  A    between atoms: _148  and  _151
REMARK   70  A    between atoms: _151  and  _152
REMARK   71  A    between atoms: _152  and  _153
REMARK   72  A    between atoms: _155  and  _157
REMARK   73  A    between atoms: _157  and  _158
REMARK   74  A    between atoms: _157  and  _160
REMARK   75  A    between atoms: _160  and  _161
REMARK   76  A    between atoms: _166  and  _168
REMARK   77  A    between atoms: _168  and  _169
REMARK   78  A    between atoms: _168  and  _171
REMARK   79  A    between atoms: _171  and  _172
REMARK   80  A    between atoms: _172  and  _173
REMARK   81  A    between atoms: _176  and  _178
REMARK   82  A    between atoms: _178  and  _179
REMARK   83  A    between atoms: _178  and  _181
REMARK   84  A    between atoms: _184  and  _186
REMARK   85  A    between atoms: _186  and  _187
REMARK   86  A    between atoms: _186  and  _189
REMARK   87  A    between atoms: _189  and  _190
REMARK   88  A    between atoms: _190  and  _191
REMARK   89  A    between atoms: _193  and  _195
REMARK   90  A    between atoms: _195  and  _196
REMARK   91  A    between atoms: _195  and  _198
REMARK   92  A    between atoms: _201  and  _203
REMARK   93  A    between atoms: _203  and  _204
REMARK   94  A    between atoms: _203  and  _206
REMARK   95  A    between atoms: _209  and  _211
REMARK   96  A    between atoms: _211  and  _212
REMARK   97  A    between atoms: _211  and  _214
REMARK   98  A    between atoms: _214  and  _215
REMARK   99  A    between atoms: _215  and  _216
REMARK  100  A    between atoms: _219  and  _221
REMARK  101  A    between atoms: _221  and  _222
REMARK  102  A    between atoms: _221  and  _224
REMARK  103  A    between atoms: _224  and  _225
REMARK  104  A    between atoms: _225  and  _226
REMARK  105  A    between atoms: _228  and  _230
REMARK  106  A    between atoms: _230  and  _231
REMARK  107  A    between atoms: _230  and  _233
REMARK  108  A    between atoms: _233  and  _234
REMARK  109  A    between atoms: _239  and  _240
REMARK  110  A    between atoms: _242  and  _244
REMARK  111  A    between atoms: _244  and  _245
REMARK  112  A    between atoms: _244  and  _247
REMARK  113  A    between atoms: _247  and  _248
REMARK  114  A    between atoms: _253  and  _255
REMARK  115  A    between atoms: _255  and  _256
REMARK  116  A    between atoms: _255  and  _258
REMARK  117  A    between atoms: _258  and  _259
REMARK  118  A    between atoms: _269  and  _271
REMARK  119  A    between atoms: _271  and  _272
REMARK  120  A    between atoms: _271  and  _274
REMARK  121  A    between atoms: _277  and  _279
REMARK  122  A    between atoms: _279  and  _280
REMARK  123  A    between atoms: _279  and  _282
REMARK  124  A    between atoms: _285  and  _287
REMARK  125  A    between atoms: _287  and  _288
REMARK  126  A    between atoms: _287  and  _290
REMARK  127  A    between atoms: _290  and  _291
REMARK  128  A    between atoms: _291  and  _292
REMARK  129  A    between atoms: _294  and  _296
REMARK  130  A    between atoms: _296  and  _297
REMARK  131  A    between atoms: _296  and  _299
REMARK  132  A    between atoms: _299  and  _300
REMARK  133  A    between atoms: _300  and  _301
REMARK  134  A    between atoms: _304  and  _306
REMARK  135  A    between atoms: _306  and  _307
REMARK  136  A    between atoms: _306  and  _309
REMARK  137  A    between atoms: _309  and  _310
REMARK  138  A    between atoms: _316  and  _318
REMARK  139  A    between atoms: _318  and  _319
REMARK  140  A    between atoms: _318  and  _321
REMARK  141  A    between atoms: _321  and  _322
REMARK  142  A    between atoms: _325  and  _327
REMARK  143  A    between atoms: _327  and  _328
REMARK  144  A    between atoms: _327  and  _330
REMARK  145  A    between atoms: _330  and  _331
REMARK  146  A    between atoms: _331  and  _332
REMARK  147  A    between atoms: _335  and  _337
REMARK  148  A    between atoms: _337  and  _338
REMARK  149  A    between atoms: _340  and  _342
REMARK  150  A    between atoms: _342  and  _343
REMARK  151  A    between atoms: _345  and  _347
REMARK  152  A    between atoms: _347  and  _348
REMARK  153  A    between atoms: _351  and  _353
REMARK  154  A    between atoms: _353  and  _354
REMARK  155  A    between atoms: _353  and  _356
REMARK  156  A    between atoms: _356  and  _357
REMARK  157  A    between atoms: _360  and  _362
REMARK  158  A    between atoms: _362  and  _363
REMARK  159  A    between atoms: _362  and  _365
REMARK  160  A    between atoms: _365  and  _366
REMARK  161  A    between atoms: _369  and  _371
REMARK  162  A    between atoms: _371  and  _372
REMARK  163  A    between atoms: _371  and  _374
REMARK  164  A    between atoms: _374  and  _375
REMARK  165  A    between atoms: _378  and  _380
REMARK  166  A    between atoms: _380  and  _381
REMARK  167  A    between atoms: _380  and  _383
REMARK  168  A    between atoms: _383  and  _384
REMARK  169  A    between atoms: _389  and  _391
REMARK  170  A    between atoms: _391  and  _392
REMARK  171  A    between atoms: _391  and  _394
REMARK  172  A    between atoms: _394  and  _395
REMARK  173  A    between atoms: _397  and  _399
REMARK  174  A    between atoms: _399  and  _400
REMARK  175  A    between atoms: _399  and  _402
REMARK  176  A    between atoms: _402  and  _403
REMARK  177  A    between atoms: _406  and  _408
REMARK  178  A    between atoms: _408  and  _409
REMARK  179  A    between atoms: _408  and  _411
REMARK  180  A    between atoms: _411  and  _412
REMARK  181  A    between atoms: _414  and  _416
REMARK  182  A    between atoms: _416  and  _417
REMARK  183  A    between atoms: _416  and  _419
REMARK  184  A    between atoms: _419  and  _420
REMARK  185  A    between atoms: _423  and  _425
REMARK  186  A    between atoms: _425  and  _426
REMARK  187  A    between atoms: _425  and  _428
REMARK  188  A    between atoms: _428  and  _429
REMARK  189  A    between atoms: _432  and  _434
REMARK  190  A    between atoms: _434  and  _435
REMARK  191  A    between atoms: _434  and  _437
REMARK  192  A    between atoms: _437  and  _438
REMARK  193  A    between atoms: _441  and  _443
REMARK  194  A    between atoms: _443  and  _444
REMARK  195  A    between atoms: _443  and  _446
REMARK  196  A    between atoms: _446  and  _447
REMARK  197  A    between atoms: _450  and  _452
REMARK  198  A    between atoms: _452  and  _453
REMARK  199  A    between atoms: _452  and  _455
REMARK  200  A    between atoms: _455  and  _456
REMARK  201  A    between atoms: _458  and  _460
REMARK  202  A    between atoms: _460  and  _461
REMARK  203  A    between atoms: _460  and  _463
REMARK  204  A    between atoms: _463  and  _464
REMARK  205  A    between atoms: _467  and  _469
REMARK  206  A    between atoms: _469  and  _470
REMARK  207  A    between atoms: _469  and  _472
REMARK  208  A    between atoms: _472  and  _473
REMARK  209  A    between atoms: _479  and  _481
REMARK  210  A    between atoms: _481  and  _482
REMARK  211  A    between atoms: _484  and  _486
REMARK  212  A    between atoms: _486  and  _487
REMARK  213  A    between atoms: _486  and  _489
REMARK  214  A    between atoms: _489  and  _490
REMARK  215  A    between atoms: _496  and  _498
REMARK  216  A    between atoms: _498  and  _499
REMARK  217  A    between atoms: _498  and  _501
REMARK                            x       y       z     vdW  Elec       q    Type
REMARK                         _______ _______ _______ _____ _____    ______ ____
ROOT
ATOM      1  C   SER A   6      19.411 -25.320  11.535  0.00  0.00    +0.243 C 
ATOM      2  N   THR A   7      19.329 -25.237  12.863  0.00  0.00    -0.295 N 
ATOM      3  H   THR A   7      18.483 -25.601  13.347  0.00  0.00    +0.150 HD
ATOM      4  O   SER A   6      20.459 -25.074  10.914  0.00  0.00    -0.273 OA
ENDROOT
BRANCH   2   5
ATOM      5  CA  THR A   7      20.410 -24.642  13.651  0.00  0.00    +0.176 C 
BRANCH   5   6
ATOM      6  C   THR A   7      21.013 -25.560  14.722  0.00  0.00    +0.243 C 
ATOM      7  O   THR A   7      21.887 -25.147  15.484  0.00  0.00    -0.273 OA
ATOM      8  N   GLY A   8      20.572 -26.811  14.764  0.00  0.00    -0.295 N 
ATOM      9  H   GLY A   8      19.829 -27.120  14.105  0.00  0.00    +0.150 HD
BRANCH   8  10
ATOM     10  CA  GLY A   8      21.123 -27.753  15.727  0.00  0.00    +0.176 C 
BRANCH  10  11
ATOM     11  C   GLY A   8      20.543 -29.143  15.572  0.00  0.00    +0.243 C 
ATOM     12  N   ILE A   9      20.942 -30.056  16.455  0.00  0.00    -0.297 N 
ATOM     13  H   ILE A   9      21.594 -29.777  17.216  0.00  0.00    +0.150 HD
ATOM     14  O   GLY A   8      19.738 -29.382  14.668  0.00  0.00    -0.273 OA
BRANCH  12  15
ATOM     15  CA  ILE A   9      20.486 -31.438  16.380  0.00  0.00    +0.149 C 
BRANCH  15  16
ATOM     16  C   ILE A   9      19.242 -31.585  17.234  0.00  0.00    +0.241 C 
ATOM     17  O   ILE A   9      18.956 -30.727  18.065  0.00  0.00    -0.273 OA
ATOM     18  N   VAL A  10      18.495 -32.661  17.013  0.00  0.00    -0.297 N 
ATOM     19  H   VAL A  10      18.760 -33.313  16.247  0.00  0.00    +0.150 HD
BRANCH  18  20
ATOM     20  CA  VAL A  10      17.319 -32.951  17.811  0.00  0.00    +0.149 C 
BRANCH  20  21
ATOM     21  C   VAL A  10      17.459 -34.336  18.446  0.00  0.00    +0.241 C 
ATOM     22  N   CYS A  11      17.106 -34.424  19.724  0.00  0.00    -0.296 N 
ATOM     23  H   CYS A  11      16.754 -33.568  20.198  0.00  0.00    +0.150 HD
ATOM     24  O   VAL A  10      17.886 -35.291  17.791  0.00  0.00    -0.273 OA
BRANCH  22  25
ATOM     25  CA  CYS A  11      17.187 -35.657  20.495  0.00  0.00    +0.160 C 
BRANCH  25  26
ATOM     26  C   CYS A  11      15.860 -35.854  21.208  0.00  0.00    +0.242 C 
ATOM     27  N   ILE A  12      15.546 -37.093  21.566  0.00  0.00    -0.298 N 
ATOM     28  H   ILE A  12      16.067 -37.899  21.166  0.00  0.00    +0.150 HD
ATOM     29  O   CYS A  11      15.132 -34.893  21.440  0.00  0.00    -0.273 OA
BRANCH  27  30
ATOM     30  CA  ILE A  12      14.476 -37.319  22.514  0.00  0.00    +0.137 C 
BRANCH  30  31
ATOM     31  C   ILE A  12      15.058 -37.798  23.833  0.00  0.00    +0.227 C 
ATOM     32  O   ILE A  12      16.211 -38.250  23.902  0.00  0.00    -0.286 OA
ENDBRANCH  30  31
BRANCH  30  33
ATOM     33  CB  ILE A  12      13.449 -38.326  22.009  0.00  0.00    +0.026 C 
ATOM     34  CG2 ILE A  12      12.856 -37.849  20.697  0.00  0.00    +0.002 C 
BRANCH  33  35
ATOM     35  CG1 ILE A  12      14.086 -39.705  21.846  0.00  0.00    +0.002 C 
ATOM     36  CD1 ILE A  12      13.317 -40.629  20.901  0.00  0.00    +0.000 C 
ENDBRANCH  33  35
ENDBRANCH  30  33
ENDBRANCH  27  30
ENDBRANCH  25  26
BRANCH  25  37
ATOM     37  CB  CYS A  11      18.291 -35.543  21.559  0.00  0.00    +0.098 C 
ATOM     38  SG  CYS A  11      19.980 -35.462  20.917  0.00  0.00    -0.080 S 
ENDBRANCH  25  37
ENDBRANCH  22  25
ENDBRANCH  20  21
BRANCH  20  39
ATOM     39  CB  VAL A  10      16.043 -32.895  16.951  0.00  0.00    +0.027 C 
ATOM     40  CG2 VAL A  10      14.807 -33.313  17.767  0.00  0.00    +0.002 C 
ATOM     41  CG1 VAL A  10      15.873 -31.494  16.366  0.00  0.00    +0.002 C 
ENDBRANCH  20  39
ENDBRANCH  18  20
ENDBRANCH  15  16
BRANCH  15  42
ATOM     42  CB  ILE A   9      21.571 -32.448  16.845  0.00  0.00    +0.027 C 
ATOM     43  CG2 ILE A   9      22.870 -32.281  16.036  0.00  0.00    +0.002 C 
BRANCH  42  44
ATOM     44  CG1 ILE A   9      21.897 -32.267  18.320  0.00  0.00    +0.002 C 
ATOM     45  CD1 ILE A   9      22.928 -33.286  18.839  0.00  0.00    +0.000 C 
ENDBRANCH  42  44
ENDBRANCH  15  42
ENDBRANCH  12  15
ENDBRANCH  10  11
ENDBRANCH   8  10
ENDBRANCH   5   6
BRANCH   5  46
ATOM     46  CB  THR A   7      19.960 -23.309  14.281  0.00  0.00    +0.137 C 
ATOM     47  CG2 THR A   7      19.758 -22.251  13.195  0.00  0.00    +0.034 C 
BRANCH  46  48
ATOM     48  OG1 THR A   7      18.719 -23.505  14.971  0.00  0.00    -0.382 OA
ATOM     49  HG1 THR A   7      18.429 -22.649  15.376  0.00  0.00    +0.210 HD
ENDBRANCH  46  48
ENDBRANCH   5  46
ENDBRANCH   2   5
BRANCH   1  50
ATOM     50  CA  SER A   6      18.127 -25.760  10.798  0.00  0.00    +0.178 C 
BRANCH  50  53
ATOM     51  C   GLY A   5      18.284 -28.085  11.561  0.00  0.00    +0.243 C 
ATOM     52  O   GLY A   5      19.496 -28.142  11.383  0.00  0.00    -0.273 OA
ATOM     53  N   SER A   6      17.559 -26.996  11.319  0.00  0.00    -0.295 N 
ATOM     54  H   SER A   6      16.537 -27.029  11.511  0.00  0.00    +0.150 HD
BRANCH  51  55
ATOM     55  CA  GLY A   5      17.508 -29.280  12.078  0.00  0.00    +0.176 C 
BRANCH  55  57
ATOM     56  C   GLU A   4      18.515 -31.458  11.946  0.00  0.00    +0.241 C 
ATOM     57  N   GLY A   5      18.344 -30.331  12.619  0.00  0.00    -0.295 N 
ATOM     58  H   GLY A   5      18.811 -30.200  13.539  0.00  0.00    +0.150 HD
ATOM     59  O   GLU A   4      18.002 -31.644  10.847  0.00  0.00    -0.273 OA
BRANCH  56  60
ATOM     60  CA  GLU A   4      19.368 -32.542  12.600  0.00  0.00    +0.149 C 
BRANCH  60  63
ATOM     61  C   GLY A   3      18.613 -34.514  13.837  0.00  0.00    +0.243 C 
ATOM     62  O   GLY A   3      19.372 -34.323  14.795  0.00  0.00    -0.273 OA
ATOM     63  N   GLU A   4      18.526 -33.707  12.786  0.00  0.00    -0.297 N 
ATOM     64  H   GLU A   4      17.816 -33.922  12.057  0.00  0.00    +0.150 HD
BRANCH  61  65
ATOM     65  CA  GLY A   3      17.686 -35.706  13.781  0.00  0.00    +0.176 C 
BRANCH  65  67
ATOM     66  C   ILE A   2      16.946 -37.675  14.921  0.00  0.00    +0.241 C 
ATOM     67  N   GLY A   3      17.635 -36.544  14.961  0.00  0.00    -0.295 N 
ATOM     68  H   GLY A   3      18.133 -36.261  15.829  0.00  0.00    +0.150 HD
ATOM     69  O   ILE A   2      16.358 -38.038  13.903  0.00  0.00    -0.273 OA
BRANCH  66  70
ATOM     70  CA  ILE A   2      16.894 -38.515  16.202  0.00  0.00    +0.148 C 
BRANCH  70  73
ATOM     71  C   LYS A   1      18.684 -39.011  17.754  0.00  0.00    +0.238 C 
ATOM     72  O   LYS A   1      18.662 -40.200  17.439  0.00  0.00    -0.274 OA
ATOM     73  N   ILE A   2      17.871 -38.113  17.211  0.00  0.00    -0.297 N 
ATOM     74  H   ILE A   2      17.930 -37.117  17.506  0.00  0.00    +0.150 HD
BRANCH  71  75
ATOM     75  CA  LYS A   1      19.649 -38.503  18.820  0.00  0.00    +0.145 C 
BRANCH  75  76
ATOM     76  N   LYS A   1      19.640 -39.413  19.961  0.00  0.00    -0.238 NA
ATOM     77  H   LYS A   1      20.497 -39.951  20.200  0.00  0.00    +0.142 HD
ENDBRANCH  75  76
BRANCH  75  78
ATOM     78  CB  LYS A   1      21.049 -38.331  18.215  0.00  0.00    +0.026 C 
BRANCH  78  79
ATOM     79  CG  LYS A   1      21.044 -37.368  17.027  0.00  0.00    -0.000 C 
BRANCH  79  80
ATOM     80  CD  LYS A   1      22.425 -37.110  16.435  0.00  0.00    -0.024 C 
BRANCH  80  81
ATOM     81  CE  LYS A   1      22.291 -36.420  15.071  0.00  0.00    -0.086 C 
BRANCH  81  82
ATOM     82  NZ  LYS A   1      23.590 -35.969  14.511  0.00  0.00    +0.380 N 
ATOM     83  HZ1 LYS A   1      24.031 -35.290  15.164  0.00  0.00    -0.089 HD
ATOM     84  HZ2 LYS A   1      24.217 -36.790  14.387  0.00  0.00    -0.089 HD
ATOM     85  HZ3 LYS A   1      23.429 -35.512  13.591  0.00  0.00    -0.089 HD
ENDBRANCH  81  82
ENDBRANCH  80  81
ENDBRANCH  79  80
ENDBRANCH  78  79
ENDBRANCH  75  78
ENDBRANCH  71  75
ENDBRANCH  70  73
BRANCH  70  86
ATOM     86  CB  ILE A   2      15.462 -38.493  16.777  0.00  0.00    +0.027 C 
ATOM     87  CG2 ILE A   2      15.400 -39.280  18.090  0.00  0.00    +0.002 C 
BRANCH  86  88
ATOM     88  CG1 ILE A   2      15.001 -37.057  17.003  0.00  0.00    +0.002 C 
ATOM     89  CD1 ILE A   2      13.511 -36.932  17.271  0.00  0.00    +0.000 C 
ENDBRANCH  86  88
ENDBRANCH  70  86
ENDBRANCH  66  70
ENDBRANCH  65  67
ENDBRANCH  61  65
ENDBRANCH  60  63
BRANCH  60  90
ATOM     90  CB  GLU A   4      20.528 -32.910  11.682  0.00  0.00    +0.041 C 
BRANCH  90  91
ATOM     91  CG  GLU A   4      21.654 -31.895  11.643  0.00  0.00    +0.116 C 
BRANCH  91  92
ATOM     92  CD  GLU A   4      23.023 -32.554  11.729  0.00  0.00    +0.365 C 
ATOM     93  OE2 GLU A   4      24.021 -31.813  11.855  0.00  0.00    -0.246 OA
ATOM     94  OE1 GLU A   4      23.095 -33.808  11.682  0.00  0.00    -0.246 OA
ENDBRANCH  91  92
ENDBRANCH  90  91
ENDBRANCH  60  90
ENDBRANCH  56  60
ENDBRANCH  55  57
ENDBRANCH  51  55
ENDBRANCH  50  53
BRANCH  50  95
ATOM     95  CB  SER A   6      17.083 -24.676  10.958  0.00  0.00    +0.166 C 
BRANCH  95  96
ATOM     96  OG  SER A   6      16.634 -24.677  12.296  0.00  0.00    -0.380 OA
ATOM     97  H   SER A   6      16.240 -25.560  12.510  0.00  0.00    +0.211 HD
ENDBRANCH  95  96
ENDBRANCH  50  95
ENDBRANCH   1  50
TORSDOF 44
REMARK  Name = ../refined-set-2016/4o0y/4o0y_pocket.pdb
REMARK  217 active torsions:
REMARK  status: ('A' for Active; 'I' for Inactive)
REMARK    1  A    between atoms: _1  and  _3
REMARK    2  A    between atoms: _3  and  _4
REMARK    3  A    between atoms: _3  and  _6
REMARK    4  A    between atoms: _6  and  _7
REMARK    5  A    between atoms: _7  and  _8
REMARK    6  A    between atoms: _8  and  _9
REMARK    7  A    between atoms: _9  and  _10
REMARK    8  A    between atoms: _14  and  _16
REMARK    9  A    between atoms: _16  and  _17
REMARK   10  A    between atoms: _16  and  _19
REMARK   11  A    between atoms: _19  and  _20
REMARK   12  A    between atoms: _23  and  _25
REMARK   13  A    between atoms: _25  and  _26
REMARK   14  A    between atoms: _28  and  _30
REMARK   15  A    between atoms: _30  and  _31
REMARK   16  A    between atoms: _30  and  _33
REMARK   17  A    between atoms: _33  and  _34
REMARK   18  A    between atoms: _34  and  _35
REMARK   19  A    between atoms: _38  and  _40
REMARK   20  A    between atoms: _40  and  _41
REMARK   21  A    between atoms: _43  and  _45
REMARK   22  A    between atoms: _45  and  _46
REMARK   23  A    between atoms: _45  and  _48
REMARK   24  A    between atoms: _48  and  _49
REMARK   25  A    between atoms: _51  and  _53
REMARK   26  A    between atoms: _53  and  _54
REMARK   27  A    between atoms: _53  and  _56
REMARK   28  A    between atoms: _56  and  _57
REMARK   29  A    between atoms: _60  and  _62
REMARK   30  A    between atoms: _62  and  _63
REMARK   31  A    between atoms: _65  and  _67
REMARK   32  A    between atoms: _67  and  _68
REMARK   33  A    between atoms: _67  and  _70
REMARK   34  A    between atoms: _70  and  _71
REMARK   35  A    between atoms: _74  and  _76
REMARK   36  A    between atoms: _76  and  _77
REMARK   37  A    between atoms: _76  and  _79
REMARK   38  A    between atoms: _82  and  _84
REMARK   39  A    between atoms: _84  and  _85
REMARK   40  A    between atoms: _84  and  _87
REMARK   41  A    between atoms: _89  and  _91
REMARK   42  A    between atoms: _91  and  _92
REMARK   43  A    between atoms: _91  and  _94
REMARK   44  A    between atoms: _94  and  _95
REMARK   45  A    between atoms: _98  and  _100
REMARK   46  A    between atoms: _100  and  _101
REMARK   47  A    between atoms: _100  and  _103
REMARK   48  A    between atoms: _106  and  _108
REMARK   49  A    between atoms: _108  and  _109
REMARK   50  A    between atoms: _112  and  _114
REMARK   51  A    between atoms: _114  and  _115
REMARK   52  A    between atoms: _114  and  _117
REMARK   53  A    between atoms: _120  and  _122
REMARK   54  A    between atoms: _122  and  _123
REMARK   55  A    between atoms: _122  and  _125
REMARK   56  A    between atoms: _125  and  _126
REMARK   57  A    between atoms: _126  and  _127
REMARK   58  A    between atoms: _127  and  _128
REMARK   59  A    between atoms: _128  and  _129
REMARK   60  A    between atoms: _133  and  _135
REMARK   61  A    between atoms: _135  and  _136
REMARK   62  A    between atoms: _135  and  _138
REMARK   63  A    between atoms: _138  and  _139
REMARK   64  A    between atoms: _139  and  _140
REMARK   65  A    between atoms: _140  and  _141
REMARK   66  A    between atoms: _141  and  _142
REMARK   67  A    between atoms: _146  and  _148
REMARK   68  A    between atoms: _148  and  _149
REMARK   69  A    between atoms: _148  and  _151
REMARK   70  A    between atoms: _151  and  _152
REMARK   71  A    between atoms: _152  and  _153
REMARK   72  A    between atoms: _155  and  _157
REMARK   73  A    between atoms: _157  and  _158
REMARK   74  A    between atoms: _157  and  _160
REMARK   75  A    between atoms: _160  and  _161
REMARK   76  A    between atoms: _166  and  _168
REMARK   77  A    between atoms: _168  and  _169
REMARK   78  A    between atoms: _168  and  _171
REMARK   79  A    between atoms: _171  and  _172
REMARK   80  A    between atoms: _172  and  _173
REMARK   81  A    between atoms: _176  and  _178
REMARK   82  A    between atoms: _178  and  _179
REMARK   83  A    between atoms: _178  and  _181
REMARK   84  A    between atoms: _184  and  _186
REMARK   85  A    between atoms: _186  and  _187
REMARK   86  A    between atoms: _186  and  _189
REMARK   87  A    between atoms: _189  and  _190
REMARK   88  A    between atoms: _190  and  _191
REMARK   89  A    between atoms: _193  and  _195
REMARK   90  A    between atoms: _195  and  _196
REMARK   91  A    between atoms: _195  and  _198
REMARK   92  A    between atoms: _201  and  _203
REMARK   93  A    between atoms: _203  and  _204
REMARK   94  A    between atoms: _203  and  _206
REMARK   95  A    between atoms: _209  and  _211
REMARK   96  A    between atoms: _211  and  _212
REMARK   97  A    between atoms: _211  and  _214
REMARK   98  A    between atoms: _214  and  _215
REMARK   99  A    between atoms: _215  and  _216
REMARK  100  A    between atoms: _219  and  _221
REMARK  101  A    between atoms: _221  and  _222
REMARK  102  A    between atoms: _221  and  _224
REMARK  103  A    between atoms: _224  and  _225
REMARK  104  A    between atoms: _225  and  _226
REMARK  105  A    between atoms: _228  and  _230
REMARK  106  A    between atoms: _230  and  _231
REMARK  107  A    between atoms: _230  and  _233
REMARK  108  A    between atoms: _233  and  _234
REMARK  109  A    between atoms: _239  and  _240
REMARK  110  A    between atoms: _242  and  _244
REMARK  111  A    between atoms: _244  and  _245
REMARK  112  A    between atoms: _244  and  _247
REMARK  113  A    between atoms: _247  and  _248
REMARK  114  A    between atoms: _253  and  _255
REMARK  115  A    between atoms: _255  and  _256
REMARK  116  A    between atoms: _255  and  _258
REMARK  117  A    between atoms: _258  and  _259
REMARK  118  A    between atoms: _269  and  _271
REMARK  119  A    between atoms: _271  and  _272
REMARK  120  A    between atoms: _271  and  _274
REMARK  121  A    between atoms: _277  and  _279
REMARK  122  A    between atoms: _279  and  _280
REMARK  123  A    between atoms: _279  and  _282
REMARK  124  A    between atoms: _285  and  _287
REMARK  125  A    between atoms: _287  and  _288
REMARK  126  A    between atoms: _287  and  _290
REMARK  127  A    between atoms: _290  and  _291
REMARK  128  A    between atoms: _291  and  _292
REMARK  129  A    between atoms: _294  and  _296
REMARK  130  A    between atoms: _296  and  _297
REMARK  131  A    between atoms: _296  and  _299
REMARK  132  A    between atoms: _299  and  _300
REMARK  133  A    between atoms: _300  and  _301
REMARK  134  A    between atoms: _304  and  _306
REMARK  135  A    between atoms: _306  and  _307
REMARK  136  A    between atoms: _306  and  _309
REMARK  137  A    between atoms: _309  and  _310
REMARK  138  A    between atoms: _316  and  _318
REMARK  139  A    between atoms: _318  and  _319
REMARK  140  A    between atoms: _318  and  _321
REMARK  141  A    between atoms: _321  and  _322
REMARK  142  A    between atoms: _325  and  _327
REMARK  143  A    between atoms: _327  and  _328
REMARK  144  A    between atoms: _327  and  _330
REMARK  145  A    between atoms: _330  and  _331
REMARK  146  A    between atoms: _331  and  _332
REMARK  147  A    between atoms: _335  and  _337
REMARK  148  A    between atoms: _337  and  _338
REMARK  149  A    between atoms: _340  and  _342
REMARK  150  A    between atoms: _342  and  _343
REMARK  151  A    between atoms: _345  and  _347
REMARK  152  A    between atoms: _347  and  _348
REMARK  153  A    between atoms: _351  and  _353
REMARK  154  A    between atoms: _353  and  _354
REMARK  155  A    between atoms: _353  and  _356
REMARK  156  A    between atoms: _356  and  _357
REMARK  157  A    between atoms: _360  and  _362
REMARK  158  A    between atoms: _362  and  _363
REMARK  159  A    between atoms: _362  and  _365
REMARK  160  A    between atoms: _365  and  _366
REMARK  161  A    between atoms: _369  and  _371
REMARK  162  A    between atoms: _371  and  _372
REMARK  163  A    between atoms: _371  and  _374
REMARK  164  A    between atoms: _374  and  _375
REMARK  165  A    between atoms: _378  and  _380
REMARK  166  A    between atoms: _380  and  _381
REMARK  167  A    between atoms: _380  and  _383
REMARK  168  A    between atoms: _383  and  _384
REMARK  169  A    between atoms: _389  and  _391
REMARK  170  A    between atoms: _391  and  _392
REMARK  171  A    between atoms: _391  and  _394
REMARK  172  A    between atoms: _394  and  _395
REMARK  173  A    between atoms: _397  and  _399
REMARK  174  A    between atoms: _399  and  _400
REMARK  175  A    between atoms: _399  and  _402
REMARK  176  A    between atoms: _402  and  _403
REMARK  177  A    between atoms: _406  and  _408
REMARK  178  A    between atoms: _408  and  _409
REMARK  179  A    between atoms: _408  and  _411
REMARK  180  A    between atoms: _411  and  _412
REMARK  181  A    between atoms: _414  and  _416
REMARK  182  A    between atoms: _416  and  _417
REMARK  183  A    between atoms: _416  and  _419
REMARK  184  A    between atoms: _419  and  _420
REMARK  185  A    between atoms: _423  and  _425
REMARK  186  A    between atoms: _425  and  _426
REMARK  187  A    between atoms: _425  and  _428
REMARK  188  A    between atoms: _428  and  _429
REMARK  189  A    between atoms: _432  and  _434
REMARK  190  A    between atoms: _434  and  _435
REMARK  191  A    between atoms: _434  and  _437
REMARK  192  A    between atoms: _437  and  _438
REMARK  193  A    between atoms: _441  and  _443
REMARK  194  A    between atoms: _443  and  _444
REMARK  195  A    between atoms: _443  and  _446
REMARK  196  A    between atoms: _446  and  _447
REMARK  197  A    between atoms: _450  and  _452
REMARK  198  A    between atoms: _452  and  _453
REMARK  199  A    between atoms: _452  and  _455
REMARK  200  A    between atoms: _455  and  _456
REMARK  201  A    between atoms: _458  and  _460
REMARK  202  A    between atoms: _460  and  _461
REMARK  203  A    between atoms: _460  and  _463
REMARK  204  A    between atoms: _463  and  _464
REMARK  205  A    between atoms: _467  and  _469
REMARK  206  A    between atoms: _469  and  _470
REMARK  207  A    between atoms: _469  and  _472
REMARK  208  A    between atoms: _472  and  _473
REMARK  209  A    between atoms: _479  and  _481
REMARK  210  A    between atoms: _481  and  _482
REMARK  211  A    between atoms: _484  and  _486
REMARK  212  A    between atoms: _486  and  _487
REMARK  213  A    between atoms: _486  and  _489
REMARK  214  A    between atoms: _489  and  _490
REMARK  215  A    between atoms: _496  and  _498
REMARK  216  A    between atoms: _498  and  _499
REMARK  217  A    between atoms: _498  and  _501
REMARK                            x       y       z     vdW  Elec       q    Type
REMARK                         _______ _______ _______ _____ _____    ______ ____
ROOT
ATOM      1  CA  LYS A   4      16.521 -29.234  19.828  0.00  0.00    +0.149 C 
ENDROOT
BRANCH   1   2
ATOM      2  C   LYS A   4      17.670 -28.484  20.517  0.00  0.00    +0.241 C 
ATOM      3  O   LYS A   4      17.450 -27.696  21.439  0.00  0.00    -0.273 OA
ATOM      4  N   LYS A   5      18.893 -28.735  20.066  0.00  0.00    -0.297 N 
ATOM      5  H   LYS A   5      19.008 -29.291  19.194  0.00  0.00    +0.150 HD
BRANCH   4   6
ATOM      6  CA  LYS A   5      20.076 -28.252  20.761  0.00  0.00    +0.149 C 
BRANCH   6   7
ATOM      7  C   LYS A   5      20.920 -27.456  19.788  0.00  0.00    +0.241 C 
ATOM      8  N   MET A   6      21.115 -26.179  20.081  0.00  0.00    -0.298 N 
ATOM      9  H   MET A   6      20.785 -25.803  20.993  0.00  0.00    +0.150 HD
ATOM     10  O   LYS A   5      21.406 -27.990  18.798  0.00  0.00    -0.273 OA
BRANCH   8  11
ATOM     11  CA  MET A   6      21.782 -25.304  19.144  0.00  0.00    +0.138 C 
BRANCH  11  12
ATOM     12  C   MET A   6      23.007 -24.669  19.779  0.00  0.00    +0.227 C 
ATOM     13  O   MET A   6      22.898 -23.831  20.682  0.00  0.00    -0.286 OA
ENDBRANCH  11  12
BRANCH  11  14
ATOM     14  CB  MET A   6      20.801 -24.249  18.672  0.00  0.00    +0.039 C 
BRANCH  14  15
ATOM     15  CG  MET A   6      19.564 -24.839  18.002  0.00  0.00    +0.060 C 
BRANCH  15  16
ATOM     16  SD  MET A   6      18.122 -23.749  18.093  0.00  0.00    -0.139 S 
ATOM     17  CE  MET A   6      17.464 -24.202  19.712  0.00  0.00    +0.069 C 
ENDBRANCH  15  16
ENDBRANCH  14  15
ENDBRANCH  11  14
ENDBRANCH   8  11
ENDBRANCH   6   7
BRANCH   6  18
ATOM     18  CB  LYS A   5      20.899 -29.430  21.328  0.00  0.00    +0.029 C 
BRANCH  18  19
ATOM     19  CG  LYS A   5      20.129 -30.360  22.273  0.00  0.00    +0.000 C 
BRANCH  19  20
ATOM     20  CD  LYS A   5      20.998 -31.579  22.642  0.00  0.00    -0.024 C 
BRANCH  20  21
ATOM     21  CE  LYS A   5      20.172 -32.794  22.986  0.00  0.00    -0.086 C 
BRANCH  21  22
ATOM     22  NZ  LYS A   5      20.979 -34.069  22.910  0.00  0.00    +0.380 N 
ATOM     23  HZ1 LYS A   5      21.773 -34.016  23.580  0.00  0.00    -0.089 HD
ATOM     24  HZ2 LYS A   5      20.372 -34.877  23.154  0.00  0.00    -0.089 HD
ATOM     25  HZ3 LYS A   5      21.346 -34.189  21.944  0.00  0.00    -0.089 HD
ENDBRANCH  21  22
ENDBRANCH  20  21
ENDBRANCH  19  20
ENDBRANCH  18  19
ENDBRANCH   6  18
ENDBRANCH   4   6
ENDBRANCH   1   2
BRANCH   1  27
ATOM     26  C   VAL A   3      15.747 -31.052  21.253  0.00  0.00    +0.241 C 
ATOM     27  N   LYS A   4      15.629 -29.792  20.844  0.00  0.00    -0.297 N 
ATOM     28  H   LYS A   4      14.887 -29.191  21.255  0.00  0.00    +0.150 HD
ATOM     29  O   VAL A   3      16.517 -31.863  20.727  0.00  0.00    -0.273 OA
BRANCH  26  30
ATOM     30  CA  VAL A   3      14.903 -31.461  22.448  0.00  0.00    +0.149 C 
BRANCH  30  33
ATOM     31  C   ALA A   2      12.817 -32.699  22.468  0.00  0.00    +0.241 C 
ATOM     32  O   ALA A   2      12.235 -31.813  23.097  0.00  0.00    -0.273 OA
ATOM     33  N   VAL A   3      14.101 -32.629  22.138  0.00  0.00    -0.297 N 
ATOM     34  H   VAL A   3      14.543 -33.431  21.645  0.00  0.00    +0.150 HD
BRANCH  31  35
ATOM     35  CA  ALA A   2      12.080 -33.951  22.027  0.00  0.00    +0.149 C 
ATOM     36  CB  ALA A   2      11.563 -33.792  20.589  0.00  0.00    +0.031 C 
BRANCH  35  39
ATOM     37  C   VAL A   1      11.072 -35.110  23.887  0.00  0.00    +0.238 C 
ATOM     38  O   VAL A   1      11.971 -35.950  23.899  0.00  0.00    -0.274 OA
ATOM     39  N   ALA A   2      10.985 -34.174  22.947  0.00  0.00    -0.297 N 
ATOM     40  H   ALA A   2      10.123 -33.597  22.872  0.00  0.00    +0.150 HD
BRANCH  37  41
ATOM     41  CA  VAL A   1       9.993 -35.109  24.969  0.00  0.00    +0.145 C 
BRANCH  41  42
ATOM     42  CB  VAL A   1      10.284 -33.976  25.968  0.00  0.00    +0.025 C 
ATOM     43  CG2 VAL A   1       9.141 -33.837  26.989  0.00  0.00    +0.002 C 
ATOM     44  CG1 VAL A   1      11.613 -34.208  26.662  0.00  0.00    +0.002 C 
ENDBRANCH  41  42
BRANCH  41  45
ATOM     45  N   VAL A   1       9.989 -36.398  25.637  0.00  0.00    -0.238 NA
ATOM     46  H   VAL A   1      10.878 -36.760  26.037  0.00  0.00    +0.142 HD
ENDBRANCH  41  45
ENDBRANCH  37  41
ENDBRANCH  35  39
ENDBRANCH  31  35
ENDBRANCH  30  33
BRANCH  30  47
ATOM     47  CB  VAL A   3      15.882 -31.739  23.612  0.00  0.00    +0.027 C 
ATOM     48  CG2 VAL A   3      15.157 -32.407  24.776  0.00  0.00    +0.002 C 
ATOM     49  CG1 VAL A   3      16.551 -30.443  24.048  0.00  0.00    +0.002 C 
ENDBRANCH  30  47
ENDBRANCH  26  30
ENDBRANCH   1  27
BRANCH   1  50
ATOM     50  CB  LYS A   4      15.756 -28.301  18.893  0.00  0.00    +0.029 C 
BRANCH  50  51
ATOM     51  CG  LYS A   4      16.501 -27.926  17.617  0.00  0.00    +0.000 C 
BRANCH  51  52
ATOM     52  CD  LYS A   4      15.798 -26.778  16.926  0.00  0.00    -0.024 C 
BRANCH  52  53
ATOM     53  CE  LYS A   4      16.625 -26.253  15.773  0.00  0.00    -0.086 C 
BRANCH  53  54
ATOM     54  NZ  LYS A   4      16.240 -24.853  15.492  0.00  0.00    +0.380 N 
ATOM     55  HZ1 LYS A   4      16.411 -24.271  16.337  0.00  0.00    -0.089 HD
ATOM     56  HZ2 LYS A   4      15.231 -24.816  15.243  0.00  0.00    -0.089 HD
ATOM     57  HZ3 LYS A   4      16.808 -24.491  14.700  0.00  0.00    -0.089 HD
ENDBRANCH  53  54
ENDBRANCH  52  53
ENDBRANCH  51  52
ENDBRANCH  50  51
ENDBRANCH   1  50
TORSDOF 27
REMARK  Name = ../refined-set-2016/4o0y/4o0y_pocket.pdb
REMARK  217 active torsions:
REMARK  status: ('A' for Active; 'I' for Inactive)
REMARK    1  A    between atoms: _1  and  _3
REMARK    2  A    between atoms: _3  and  _4
REMARK    3  A    between atoms: _3  and  _6
REMARK    4  A    between atoms: _6  and  _7
REMARK    5  A    between atoms: _7  and  _8
REMARK    6  A    between atoms: _8  and  _9
REMARK    7  A    between atoms: _9  and  _10
REMARK    8  A    between atoms: _14  and  _16
REMARK    9  A    between atoms: _16  and  _17
REMARK   10  A    between atoms: _16  and  _19
REMARK   11  A    between atoms: _19  and  _20
REMARK   12  A    between atoms: _23  and  _25
REMARK   13  A    between atoms: _25  and  _26
REMARK   14  A    between atoms: _28  and  _30
REMARK   15  A    between atoms: _30  and  _31
REMARK   16  A    between atoms: _30  and  _33
REMARK   17  A    between atoms: _33  and  _34
REMARK   18  A    between atoms: _34  and  _35
REMARK   19  A    between atoms: _38  and  _40
REMARK   20  A    between atoms: _40  and  _41
REMARK   21  A    between atoms: _43  and  _45
REMARK   22  A    between atoms: _45  and  _46
REMARK   23  A    between atoms: _45  and  _48
REMARK   24  A    between atoms: _48  and  _49
REMARK   25  A    between atoms: _51  and  _53
REMARK   26  A    between atoms: _53  and  _54
REMARK   27  A    between atoms: _53  and  _56
REMARK   28  A    between atoms: _56  and  _57
REMARK   29  A    between atoms: _60  and  _62
REMARK   30  A    between atoms: _62  and  _63
REMARK   31  A    between atoms: _65  and  _67
REMARK   32  A    between atoms: _67  and  _68
REMARK   33  A    between atoms: _67  and  _70
REMARK   34  A    between atoms: _70  and  _71
REMARK   35  A    between atoms: _74  and  _76
REMARK   36  A    between atoms: _76  and  _77
REMARK   37  A    between atoms: _76  and  _79
REMARK   38  A    between atoms: _82  and  _84
REMARK   39  A    between atoms: _84  and  _85
REMARK   40  A    between atoms: _84  and  _87
REMARK   41  A    between atoms: _89  and  _91
REMARK   42  A    between atoms: _91  and  _92
REMARK   43  A    between atoms: _91  and  _94
REMARK   44  A    between atoms: _94  and  _95
REMARK   45  A    between atoms: _98  and  _100
REMARK   46  A    between atoms: _100  and  _101
REMARK   47  A    between atoms: _100  and  _103
REMARK   48  A    between atoms: _106  and  _108
REMARK   49  A    between atoms: _108  and  _109
REMARK   50  A    between atoms: _112  and  _114
REMARK   51  A    between atoms: _114  and  _115
REMARK   52  A    between atoms: _114  and  _117
REMARK   53  A    between atoms: _120  and  _122
REMARK   54  A    between atoms: _122  and  _123
REMARK   55  A    between atoms: _122  and  _125
REMARK   56  A    between atoms: _125  and  _126
REMARK   57  A    between atoms: _126  and  _127
REMARK   58  A    between atoms: _127  and  _128
REMARK   59  A    between atoms: _128  and  _129
REMARK   60  A    between atoms: _133  and  _135
REMARK   61  A    between atoms: _135  and  _136
REMARK   62  A    between atoms: _135  and  _138
REMARK   63  A    between atoms: _138  and  _139
REMARK   64  A    between atoms: _139  and  _140
REMARK   65  A    between atoms: _140  and  _141
REMARK   66  A    between atoms: _141  and  _142
REMARK   67  A    between atoms: _146  and  _148
REMARK   68  A    between atoms: _148  and  _149
REMARK   69  A    between atoms: _148  and  _151
REMARK   70  A    between atoms: _151  and  _152
REMARK   71  A    between atoms: _152  and  _153
REMARK   72  A    between atoms: _155  and  _157
REMARK   73  A    between atoms: _157  and  _158
REMARK   74  A    between atoms: _157  and  _160
REMARK   75  A    between atoms: _160  and  _161
REMARK   76  A    between atoms: _166  and  _168
REMARK   77  A    between atoms: _168  and  _169
REMARK   78  A    between atoms: _168  and  _171
REMARK   79  A    between atoms: _171  and  _172
REMARK   80  A    between atoms: _172  and  _173
REMARK   81  A    between atoms: _176  and  _178
REMARK   82  A    between atoms: _178  and  _179
REMARK   83  A    between atoms: _178  and  _181
REMARK   84  A    between atoms: _184  and  _186
REMARK   85  A    between atoms: _186  and  _187
REMARK   86  A    between atoms: _186  and  _189
REMARK   87  A    between atoms: _189  and  _190
REMARK   88  A    between atoms: _190  and  _191
REMARK   89  A    between atoms: _193  and  _195
REMARK   90  A    between atoms: _195  and  _196
REMARK   91  A    between atoms: _195  and  _198
REMARK   92  A    between atoms: _201  and  _203
REMARK   93  A    between atoms: _203  and  _204
REMARK   94  A    between atoms: _203  and  _206
REMARK   95  A    between atoms: _209  and  _211
REMARK   96  A    between atoms: _211  and  _212
REMARK   97  A    between atoms: _211  and  _214
REMARK   98  A    between atoms: _214  and  _215
REMARK   99  A    between atoms: _215  and  _216
REMARK  100  A    between atoms: _219  and  _221
REMARK  101  A    between atoms: _221  and  _222
REMARK  102  A    between atoms: _221  and  _224
REMARK  103  A    between atoms: _224  and  _225
REMARK  104  A    between atoms: _225  and  _226
REMARK  105  A    between atoms: _228  and  _230
REMARK  106  A    between atoms: _230  and  _231
REMARK  107  A    between atoms: _230  and  _233
REMARK  108  A    between atoms: _233  and  _234
REMARK  109  A    between atoms: _239  and  _240
REMARK  110  A    between atoms: _242  and  _244
REMARK  111  A    between atoms: _244  and  _245
REMARK  112  A    between atoms: _244  and  _247
REMARK  113  A    between atoms: _247  and  _248
REMARK  114  A    between atoms: _253  and  _255
REMARK  115  A    between atoms: _255  and  _256
REMARK  116  A    between atoms: _255  and  _258
REMARK  117  A    between atoms: _258  and  _259
REMARK  118  A    between atoms: _269  and  _271
REMARK  119  A    between atoms: _271  and  _272
REMARK  120  A    between atoms: _271  and  _274
REMARK  121  A    between atoms: _277  and  _279
REMARK  122  A    between atoms: _279  and  _280
REMARK  123  A    between atoms: _279  and  _282
REMARK  124  A    between atoms: _285  and  _287
REMARK  125  A    between atoms: _287  and  _288
REMARK  126  A    between atoms: _287  and  _290
REMARK  127  A    between atoms: _290  and  _291
REMARK  128  A    between atoms: _291  and  _292
REMARK  129  A    between atoms: _294  and  _296
REMARK  130  A    between atoms: _296  and  _297
REMARK  131  A    between atoms: _296  and  _299
REMARK  132  A    between atoms: _299  and  _300
REMARK  133  A    between atoms: _300  and  _301
REMARK  134  A    between atoms: _304  and  _306
REMARK  135  A    between atoms: _306  and  _307
REMARK  136  A    between atoms: _306  and  _309
REMARK  137  A    between atoms: _309  and  _310
REMARK  138  A    between atoms: _316  and  _318
REMARK  139  A    between atoms: _318  and  _319
REMARK  140  A    between atoms: _318  and  _321
REMARK  141  A    between atoms: _321  and  _322
REMARK  142  A    between atoms: _325  and  _327
REMARK  143  A    between atoms: _327  and  _328
REMARK  144  A    between atoms: _327  and  _330
REMARK  145  A    between atoms: _330  and  _331
REMARK  146  A    between atoms: _331  and  _332
REMARK  147  A    between atoms: _335  and  _337
REMARK  148  A    between atoms: _337  and  _338
REMARK  149  A    between atoms: _340  and  _342
REMARK  150  A    between atoms: _342  and  _343
REMARK  151  A    between atoms: _345  and  _347
REMARK  152  A    between atoms: _347  and  _348
REMARK  153  A    between atoms: _351  and  _353
REMARK  154  A    between atoms: _353  and  _354
REMARK  155  A    between atoms: _353  and  _356
REMARK  156  A    between atoms: _356  and  _357
REMARK  157  A    between atoms: _360  and  _362
REMARK  158  A    between atoms: _362  and  _363
REMARK  159  A    between atoms: _362  and  _365
REMARK  160  A    between atoms: _365  and  _366
REMARK  161  A    between atoms: _369  and  _371
REMARK  162  A    between atoms: _371  and  _372
REMARK  163  A    between atoms: _371  and  _374
REMARK  164  A    between atoms: _374  and  _375
REMARK  165  A    between atoms: _378  and  _380
REMARK  166  A    between atoms: _380  and  _381
REMARK  167  A    between atoms: _380  and  _383
REMARK  168  A    between atoms: _383  and  _384
REMARK  169  A    between atoms: _389  and  _391
REMARK  170  A    between atoms: _391  and  _392
REMARK  171  A    between atoms: _391  and  _394
REMARK  172  A    between atoms: _394  and  _395
REMARK  173  A    between atoms: _397  and  _399
REMARK  174  A    between atoms: _399  and  _400
REMARK  175  A    between atoms: _399  and  _402
REMARK  176  A    between atoms: _402  and  _403
REMARK  177  A    between atoms: _406  and  _408
REMARK  178  A    between atoms: _408  and  _409
REMARK  179  A    between atoms: _408  and  _411
REMARK  180  A    between atoms: _411  and  _412
REMARK  181  A    between atoms: _414  and  _416
REMARK  182  A    between atoms: _416  and  _417
REMARK  183  A    between atoms: _416  and  _419
REMARK  184  A    between atoms: _419  and  _420
REMARK  185  A    between atoms: _423  and  _425
REMARK  186  A    between atoms: _425  and  _426
REMARK  187  A    between atoms: _425  and  _428
REMARK  188  A    between atoms: _428  and  _429
REMARK  189  A    between atoms: _432  and  _434
REMARK  190  A    between atoms: _434  and  _435
REMARK  191  A    between atoms: _434  and  _437
REMARK  192  A    between atoms: _437  and  _438
REMARK  193  A    between atoms: _441  and  _443
REMARK  194  A    between atoms: _443  and  _444
REMARK  195  A    between atoms: _443  and  _446
REMARK  196  A    between atoms: _446  and  _447
REMARK  197  A    between atoms: _450  and  _452
REMARK  198  A    between atoms: _452  and  _453
REMARK  199  A    between atoms: _452  and  _455
REMARK  200  A    between atoms: _455  and  _456
REMARK  201  A    between atoms: _458  and  _460
REMARK  202  A    between atoms: _460  and  _461
REMARK  203  A    between atoms: _460  and  _463
REMARK  204  A    between atoms: _463  and  _464
REMARK  205  A    between atoms: _467  and  _469
REMARK  206  A    between atoms: _469  and  _470
REMARK  207  A    between atoms: _469  and  _472
REMARK  208  A    between atoms: _472  and  _473
REMARK  209  A    between atoms: _479  and  _481
REMARK  210  A    between atoms: _481  and  _482
REMARK  211  A    between atoms: _484  and  _486
REMARK  212  A    between atoms: _486  and  _487
REMARK  213  A    between atoms: _486  and  _489
REMARK  214  A    between atoms: _489  and  _490
REMARK  215  A    between atoms: _496  and  _498
REMARK  216  A    between atoms: _498  and  _499
REMARK  217  A    between atoms: _498  and  _501
REMARK                            x       y       z     vdW  Elec       q    Type
REMARK                         _______ _______ _______ _____ _____    ______ ____
ROOT
ATOM      1  CA  GLU A   2      11.969 -20.156  18.399  0.00  0.00    +0.149 C 
ENDROOT
BRANCH   1   3
ATOM      2  C   ASN A   1      12.459 -18.083  17.260  0.00  0.00    +0.239 C 
ATOM      3  N   GLU A   2      12.867 -19.272  17.680  0.00  0.00    -0.297 N 
ATOM      4  H   GLU A   2      13.844 -19.575  17.492  0.00  0.00    +0.150 HD
ATOM      5  O   ASN A   1      11.307 -17.688  17.408  0.00  0.00    -0.274 OA
BRANCH   2   6
ATOM      6  CA  ASN A   1      13.493 -17.217  16.545  0.00  0.00    +0.154 C 
BRANCH   6   7
ATOM      7  N   ASN A   1      14.747 -17.014  17.266  0.00  0.00    -0.238 NA
ATOM      8  H   ASN A   1      15.638 -17.359  16.855  0.00  0.00    +0.142 HD
ENDBRANCH   6   7
BRANCH   6   9
ATOM      9  CB  ASN A   1      13.758 -17.769  15.141  0.00  0.00    +0.111 C 
BRANCH   9  10
ATOM     10  CG  ASN A   1      14.426 -16.749  14.229  0.00  0.00    +0.221 C 
ATOM     11  OD1 ASN A   1      14.187 -15.546  14.337  0.00  0.00    -0.275 OA
ATOM     12  ND2 ASN A   1      15.269 -17.233  13.323  0.00  0.00    -0.329 N 
ATOM     13 HD21 ASN A   1      15.441 -18.257  13.267  0.00  0.00    +0.145 HD
ATOM     14 HD22 ASN A   1      15.757 -16.588  12.669  0.00  0.00    +0.145 HD
ENDBRANCH   9  10
ENDBRANCH   6   9
ENDBRANCH   2   6
ENDBRANCH   1   3
BRANCH   1  15
ATOM     15  C   GLU A   2      11.604 -19.594  19.774  0.00  0.00    +0.241 C 
ATOM     16  N   VAL A   3      12.565 -18.946  20.433  0.00  0.00    -0.298 N 
ATOM     17  H   VAL A   3      13.478 -18.768  19.968  0.00  0.00    +0.150 HD
ATOM     18  O   GLU A   2      10.453 -19.715  20.218  0.00  0.00    -0.273 OA
BRANCH  16  19
ATOM     19  CA  VAL A   3      12.346 -18.481  21.808  0.00  0.00    +0.137 C 
BRANCH  19  20
ATOM     20  CB  VAL A   3      13.603 -18.642  22.690  0.00  0.00    +0.026 C 
ATOM     21  CG2 VAL A   3      14.024 -20.106  22.733  0.00  0.00    +0.002 C 
ATOM     22  CG1 VAL A   3      14.748 -17.748  22.193  0.00  0.00    +0.002 C 
ENDBRANCH  19  20
BRANCH  19  23
ATOM     23  C   VAL A   3      11.789 -17.060  21.946  0.00  0.00    +0.227 C 
ATOM     24  O   VAL A   3      11.250 -16.706  23.003  0.00  0.00    -0.286 OA
ENDBRANCH  19  23
ENDBRANCH  16  19
ENDBRANCH   1  15
BRANCH   1  25
ATOM     25  CB  GLU A   2      12.582 -21.560  18.491  0.00  0.00    +0.041 C 
BRANCH  25  26
ATOM     26  CG  GLU A   2      12.688 -22.224  17.100  0.00  0.00    +0.116 C 
BRANCH  26  27
ATOM     27  CD  GLU A   2      13.871 -23.150  16.932  0.00  0.00    +0.365 C 
ATOM     28  OE2 GLU A   2      14.871 -22.993  17.664  0.00  0.00    -0.246 OA
ATOM     29  OE1 GLU A   2      13.805 -24.041  16.055  0.00  0.00    -0.246 OA
ENDBRANCH  26  27
ENDBRANCH  25  26
ENDBRANCH   1  25
TORSDOF 12
REMARK  Name = ../refined-set-2016/4o0y/4o0y_pocket.pdb
REMARK  217 active torsions:
REMARK  status: ('A' for Active; 'I' for Inactive)
REMARK    1  A    between atoms: _1  and  _3
REMARK    2  A    between atoms: _3  and  _4
REMARK    3  A    between atoms: _3  and  _6
REMARK    4  A    between atoms: _6  and  _7
REMARK    5  A    between atoms: _7  and  _8
REMARK    6  A    between atoms: _8  and  _9
REMARK    7  A    between atoms: _9  and  _10
REMARK    8  A    between atoms: _14  and  _16
REMARK    9  A    between atoms: _16  and  _17
REMARK   10  A    between atoms: _16  and  _19
REMARK   11  A    between atoms: _19  and  _20
REMARK   12  A    between atoms: _23  and  _25
REMARK   13  A    between atoms: _25  and  _26
REMARK   14  A    between atoms: _28  and  _30
REMARK   15  A    between atoms: _30  and  _31
REMARK   16  A    between atoms: _30  and  _33
REMARK   17  A    between atoms: _33  and  _34
REMARK   18  A    between atoms: _34  and  _35
REMARK   19  A    between atoms: _38  and  _40
REMARK   20  A    between atoms: _40  and  _41
REMARK   21  A    between atoms: _43  and  _45
REMARK   22  A    between atoms: _45  and  _46
REMARK   23  A    between atoms: _45  and  _48
REMARK   24  A    between atoms: _48  and  _49
REMARK   25  A    between atoms: _51  and  _53
REMARK   26  A    between atoms: _53  and  _54
REMARK   27  A    between atoms: _53  and  _56
REMARK   28  A    between atoms: _56  and  _57
REMARK   29  A    between atoms: _60  and  _62
REMARK   30  A    between atoms: _62  and  _63
REMARK   31  A    between atoms: _65  and  _67
REMARK   32  A    between atoms: _67  and  _68
REMARK   33  A    between atoms: _67  and  _70
REMARK   34  A    between atoms: _70  and  _71
REMARK   35  A    between atoms: _74  and  _76
REMARK   36  A    between atoms: _76  and  _77
REMARK   37  A    between atoms: _76  and  _79
REMARK   38  A    between atoms: _82  and  _84
REMARK   39  A    between atoms: _84  and  _85
REMARK   40  A    between atoms: _84  and  _87
REMARK   41  A    between atoms: _89  and  _91
REMARK   42  A    between atoms: _91  and  _92
REMARK   43  A    between atoms: _91  and  _94
REMARK   44  A    between atoms: _94  and  _95
REMARK   45  A    between atoms: _98  and  _100
REMARK   46  A    between atoms: _100  and  _101
REMARK   47  A    between atoms: _100  and  _103
REMARK   48  A    between atoms: _106  and  _108
REMARK   49  A    between atoms: _108  and  _109
REMARK   50  A    between atoms: _112  and  _114
REMARK   51  A    between atoms: _114  and  _115
REMARK   52  A    between atoms: _114  and  _117
REMARK   53  A    between atoms: _120  and  _122
REMARK   54  A    between atoms: _122  and  _123
REMARK   55  A    between atoms: _122  and  _125
REMARK   56  A    between atoms: _125  and  _126
REMARK   57  A    between atoms: _126  and  _127
REMARK   58  A    between atoms: _127  and  _128
REMARK   59  A    between atoms: _128  and  _129
REMARK   60  A    between atoms: _133  and  _135
REMARK   61  A    between atoms: _135  and  _136
REMARK   62  A    between atoms: _135  and  _138
REMARK   63  A    between atoms: _138  and  _139
REMARK   64  A    between atoms: _139  and  _140
REMARK   65  A    between atoms: _140  and  _141
REMARK   66  A    between atoms: _141  and  _142
REMARK   67  A    between atoms: _146  and  _148
REMARK   68  A    between atoms: _148  and  _149
REMARK   69  A    between atoms: _148  and  _151
REMARK   70  A    between atoms: _151  and  _152
REMARK   71  A    between atoms: _152  and  _153
REMARK   72  A    between atoms: _155  and  _157
REMARK   73  A    between atoms: _157  and  _158
REMARK   74  A    between atoms: _157  and  _160
REMARK   75  A    between atoms: _160  and  _161
REMARK   76  A    between atoms: _166  and  _168
REMARK   77  A    between atoms: _168  and  _169
REMARK   78  A    between atoms: _168  and  _171
REMARK   79  A    between atoms: _171  and  _172
REMARK   80  A    between atoms: _172  and  _173
REMARK   81  A    between atoms: _176  and  _178
REMARK   82  A    between atoms: _178  and  _179
REMARK   83  A    between atoms: _178  and  _181
REMARK   84  A    between atoms: _184  and  _186
REMARK   85  A    between atoms: _186  and  _187
REMARK   86  A    between atoms: _186  and  _189
REMARK   87  A    between atoms: _189  and  _190
REMARK   88  A    between atoms: _190  and  _191
REMARK   89  A    between atoms: _193  and  _195
REMARK   90  A    between atoms: _195  and  _196
REMARK   91  A    between atoms: _195  and  _198
REMARK   92  A    between atoms: _201  and  _203
REMARK   93  A    between atoms: _203  and  _204
REMARK   94  A    between atoms: _203  and  _206
REMARK   95  A    between atoms: _209  and  _211
REMARK   96  A    between atoms: _211  and  _212
REMARK   97  A    between atoms: _211  and  _214
REMARK   98  A    between atoms: _214  and  _215
REMARK   99  A    between atoms: _215  and  _216
REMARK  100  A    between atoms: _219  and  _221
REMARK  101  A    between atoms: _221  and  _222
REMARK  102  A    between atoms: _221  and  _224
REMARK  103  A    between atoms: _224  and  _225
REMARK  104  A    between atoms: _225  and  _226
REMARK  105  A    between atoms: _228  and  _230
REMARK  106  A    between atoms: _230  and  _231
REMARK  107  A    between atoms: _230  and  _233
REMARK  108  A    between atoms: _233  and  _234
REMARK  109  A    between atoms: _239  and  _240
REMARK  110  A    between atoms: _242  and  _244
REMARK  111  A    between atoms: _244  and  _245
REMARK  112  A    between atoms: _244  and  _247
REMARK  113  A    between atoms: _247  and  _248
REMARK  114  A    between atoms: _253  and  _255
REMARK  115  A    between atoms: _255  and  _256
REMARK  116  A    between atoms: _255  and  _258
REMARK  117  A    between atoms: _258  and  _259
REMARK  118  A    between atoms: _269  and  _271
REMARK  119  A    between atoms: _271  and  _272
REMARK  120  A    between atoms: _271  and  _274
REMARK  121  A    between atoms: _277  and  _279
REMARK  122  A    between atoms: _279  and  _280
REMARK  123  A    between atoms: _279  and  _282
REMARK  124  A    between atoms: _285  and  _287
REMARK  125  A    between atoms: _287  and  _288
REMARK  126  A    between atoms: _287  and  _290
REMARK  127  A    between atoms: _290  and  _291
REMARK  128  A    between atoms: _291  and  _292
REMARK  129  A    between atoms: _294  and  _296
REMARK  130  A    between atoms: _296  and  _297
REMARK  131  A    between atoms: _296  and  _299
REMARK  132  A    between atoms: _299  and  _300
REMARK  133  A    between atoms: _300  and  _301
REMARK  134  A    between atoms: _304  and  _306
REMARK  135  A    between atoms: _306  and  _307
REMARK  136  A    between atoms: _306  and  _309
REMARK  137  A    between atoms: _309  and  _310
REMARK  138  A    between atoms: _316  and  _318
REMARK  139  A    between atoms: _318  and  _319
REMARK  140  A    between atoms: _318  and  _321
REMARK  141  A    between atoms: _321  and  _322
REMARK  142  A    between atoms: _325  and  _327
REMARK  143  A    between atoms: _327  and  _328
REMARK  144  A    between atoms: _327  and  _330
REMARK  145  A    between atoms: _330  and  _331
REMARK  146  A    between atoms: _331  and  _332
REMARK  147  A    between atoms: _335  and  _337
REMARK  148  A    between atoms: _337  and  _338
REMARK  149  A    between atoms: _340  and  _342
REMARK  150  A    between atoms: _342  and  _343
REMARK  151  A    between atoms: _345  and  _347
REMARK  152  A    between atoms: _347  and  _348
REMARK  153  A    between atoms: _351  and  _353
REMARK  154  A    between atoms: _353  and  _354
REMARK  155  A    between atoms: _353  and  _356
REMARK  156  A    between atoms: _356  and  _357
REMARK  157  A    between atoms: _360  and  _362
REMARK  158  A    between atoms: _362  and  _363
REMARK  159  A    between atoms: _362  and  _365
REMARK  160  A    between atoms: _365  and  _366
REMARK  161  A    between atoms: _369  and  _371
REMARK  162  A    between atoms: _371  and  _372
REMARK  163  A    between atoms: _371  and  _374
REMARK  164  A    between atoms: _374  and  _375
REMARK  165  A    between atoms: _378  and  _380
REMARK  166  A    between atoms: _380  and  _381
REMARK  167  A    between atoms: _380  and  _383
REMARK  168  A    between atoms: _383  and  _384
REMARK  169  A    between atoms: _389  and  _391
REMARK  170  A    between atoms: _391  and  _392
REMARK  171  A    between atoms: _391  and  _394
REMARK  172  A    between atoms: _394  and  _395
REMARK  173  A    between atoms: _397  and  _399
REMARK  174  A    between atoms: _399  and  _400
REMARK  175  A    between atoms: _399  and  _402
REMARK  176  A    between atoms: _402  and  _403
REMARK  177  A    between atoms: _406  and  _408
REMARK  178  A    between atoms: _408  and  _409
REMARK  179  A    between atoms: _408  and  _411
REMARK  180  A    between atoms: _411  and  _412
REMARK  181  A    between atoms: _414  and  _416
REMARK  182  A    between atoms: _416  and  _417
REMARK  183  A    between atoms: _416  and  _419
REMARK  184  A    between atoms: _419  and  _420
REMARK  185  A    between atoms: _423  and  _425
REMARK  186  A    between atoms: _425  and  _426
REMARK  187  A    between atoms: _425  and  _428
REMARK  188  A    between atoms: _428  and  _429
REMARK  189  A    between atoms: _432  and  _434
REMARK  190  A    between atoms: _434  and  _435
REMARK  191  A    between atoms: _434  and  _437
REMARK  192  A    between atoms: _437  and  _438
REMARK  193  A    between atoms: _441  and  _443
REMARK  194  A    between atoms: _443  and  _444
REMARK  195  A    between atoms: _443  and  _446
REMARK  196  A    between atoms: _446  and  _447
REMARK  197  A    between atoms: _450  and  _452
REMARK  198  A    between atoms: _452  and  _453
REMARK  199  A    between atoms: _452  and  _455
REMARK  200  A    between atoms: _455  and  _456
REMARK  201  A    between atoms: _458  and  _460
REMARK  202  A    between atoms: _460  and  _461
REMARK  203  A    between atoms: _460  and  _463
REMARK  204  A    between atoms: _463  and  _464
REMARK  205  A    between atoms: _467  and  _469
REMARK  206  A    between atoms: _469  and  _470
REMARK  207  A    between atoms: _469  and  _472
REMARK  208  A    between atoms: _472  and  _473
REMARK  209  A    between atoms: _479  and  _481
REMARK  210  A    between atoms: _481  and  _482
REMARK  211  A    between atoms: _484  and  _486
REMARK  212  A    between atoms: _486  and  _487
REMARK  213  A    between atoms: _486  and  _489
REMARK  214  A    between atoms: _489  and  _490
REMARK  215  A    between atoms: _496  and  _498
REMARK  216  A    between atoms: _498  and  _499
REMARK  217  A    between atoms: _498  and  _501
REMARK                            x       y       z     vdW  Elec       q    Type
REMARK                         _______ _______ _______ _____ _____    ______ ____
ROOT
ATOM      1  CA  MET A   1       7.562 -18.386  18.639  0.00  0.00    +0.134 C 
ENDROOT
BRANCH   1   2
ATOM      2  N   MET A   1       8.479 -17.270  18.457  0.00  0.00    -0.239 NA
ATOM      3  H   MET A   1       9.502 -17.422  18.570  0.00  0.00    +0.142 HD
ENDBRANCH   1   2
BRANCH   1   4
ATOM      4  C   MET A   1       7.241 -18.686  20.098  0.00  0.00    +0.224 C 
ATOM      5  O   MET A   1       6.672 -19.731  20.404  0.00  0.00    -0.287 OA
ENDBRANCH   1   4
BRANCH   1   6
ATOM      6  CB  MET A   1       8.094 -19.632  17.924  0.00  0.00    +0.037 C 
BRANCH   6   7
ATOM      7  CG  MET A   1       8.076 -19.508  16.410  0.00  0.00    +0.059 C 
BRANCH   7   8
ATOM      8  SD  MET A   1       6.376 -19.449  15.789  0.00  0.00    -0.139 S 
ATOM      9  CE  MET A   1       6.207 -17.724  15.415  0.00  0.00    +0.069 C 
ENDBRANCH   7   8
ENDBRANCH   6   7
ENDBRANCH   1   6
TORSDOF 5
REMARK  Name = ../refined-set-2016/4o0y/4o0y_pocket.pdb
REMARK  217 active torsions:
REMARK  status: ('A' for Active; 'I' for Inactive)
REMARK    1  A    between atoms: _1  and  _3
REMARK    2  A    between atoms: _3  and  _4
REMARK    3  A    between atoms: _3  and  _6
REMARK    4  A    between atoms: _6  and  _7
REMARK    5  A    between atoms: _7  and  _8
REMARK    6  A    between atoms: _8  and  _9
REMARK    7  A    between atoms: _9  and  _10
REMARK    8  A    between atoms: _14  and  _16
REMARK    9  A    between atoms: _16  and  _17
REMARK   10  A    between atoms: _16  and  _19
REMARK   11  A    between atoms: _19  and  _20
REMARK   12  A    between atoms: _23  and  _25
REMARK   13  A    between atoms: _25  and  _26
REMARK   14  A    between atoms: _28  and  _30
REMARK   15  A    between atoms: _30  and  _31
REMARK   16  A    between atoms: _30  and  _33
REMARK   17  A    between atoms: _33  and  _34
REMARK   18  A    between atoms: _34  and  _35
REMARK   19  A    between atoms: _38  and  _40
REMARK   20  A    between atoms: _40  and  _41
REMARK   21  A    between atoms: _43  and  _45
REMARK   22  A    between atoms: _45  and  _46
REMARK   23  A    between atoms: _45  and  _48
REMARK   24  A    between atoms: _48  and  _49
REMARK   25  A    between atoms: _51  and  _53
REMARK   26  A    between atoms: _53  and  _54
REMARK   27  A    between atoms: _53  and  _56
REMARK   28  A    between atoms: _56  and  _57
REMARK   29  A    between atoms: _60  and  _62
REMARK   30  A    between atoms: _62  and  _63
REMARK   31  A    between atoms: _65  and  _67
REMARK   32  A    between atoms: _67  and  _68
REMARK   33  A    between atoms: _67  and  _70
REMARK   34  A    between atoms: _70  and  _71
REMARK   35  A    between atoms: _74  and  _76
REMARK   36  A    between atoms: _76  and  _77
REMARK   37  A    between atoms: _76  and  _79
REMARK   38  A    between atoms: _82  and  _84
REMARK   39  A    between atoms: _84  and  _85
REMARK   40  A    between atoms: _84  and  _87
REMARK   41  A    between atoms: _89  and  _91
REMARK   42  A    between atoms: _91  and  _92
REMARK   43  A    between atoms: _91  and  _94
REMARK   44  A    between atoms: _94  and  _95
REMARK   45  A    between atoms: _98  and  _100
REMARK   46  A    between atoms: _100  and  _101
REMARK   47  A    between atoms: _100  and  _103
REMARK   48  A    between atoms: _106  and  _108
REMARK   49  A    between atoms: _108  and  _109
REMARK   50  A    between atoms: _112  and  _114
REMARK   51  A    between atoms: _114  and  _115
REMARK   52  A    between atoms: _114  and  _117
REMARK   53  A    between atoms: _120  and  _122
REMARK   54  A    between atoms: _122  and  _123
REMARK   55  A    between atoms: _122  and  _125
REMARK   56  A    between atoms: _125  and  _126
REMARK   57  A    between atoms: _126  and  _127
REMARK   58  A    between atoms: _127  and  _128
REMARK   59  A    between atoms: _128  and  _129
REMARK   60  A    between atoms: _133  and  _135
REMARK   61  A    between atoms: _135  and  _136
REMARK   62  A    between atoms: _135  and  _138
REMARK   63  A    between atoms: _138  and  _139
REMARK   64  A    between atoms: _139  and  _140
REMARK   65  A    between atoms: _140  and  _141
REMARK   66  A    between atoms: _141  and  _142
REMARK   67  A    between atoms: _146  and  _148
REMARK   68  A    between atoms: _148  and  _149
REMARK   69  A    between atoms: _148  and  _151
REMARK   70  A    between atoms: _151  and  _152
REMARK   71  A    between atoms: _152  and  _153
REMARK   72  A    between atoms: _155  and  _157
REMARK   73  A    between atoms: _157  and  _158
REMARK   74  A    between atoms: _157  and  _160
REMARK   75  A    between atoms: _160  and  _161
REMARK   76  A    between atoms: _166  and  _168
REMARK   77  A    between atoms: _168  and  _169
REMARK   78  A    between atoms: _168  and  _171
REMARK   79  A    between atoms: _171  and  _172
REMARK   80  A    between atoms: _172  and  _173
REMARK   81  A    between atoms: _176  and  _178
REMARK   82  A    between atoms: _178  and  _179
REMARK   83  A    between atoms: _178  and  _181
REMARK   84  A    between atoms: _184  and  _186
REMARK   85  A    between atoms: _186  and  _187
REMARK   86  A    between atoms: _186  and  _189
REMARK   87  A    between atoms: _189  and  _190
REMARK   88  A    between atoms: _190  and  _191
REMARK   89  A    between atoms: _193  and  _195
REMARK   90  A    between atoms: _195  and  _196
REMARK   91  A    between atoms: _195  and  _198
REMARK   92  A    between atoms: _201  and  _203
REMARK   93  A    between atoms: _203  and  _204
REMARK   94  A    between atoms: _203  and  _206
REMARK   95  A    between atoms: _209  and  _211
REMARK   96  A    between atoms: _211  and  _212
REMARK   97  A    between atoms: _211  and  _214
REMARK   98  A    between atoms: _214  and  _215
REMARK   99  A    between atoms: _215  and  _216
REMARK  100  A    between atoms: _219  and  _221
REMARK  101  A    between atoms: _221  and  _222
REMARK  102  A    between atoms: _221  and  _224
REMARK  103  A    between atoms: _224  and  _225
REMARK  104  A    between atoms: _225  and  _226
REMARK  105  A    between atoms: _228  and  _230
REMARK  106  A    between atoms: _230  and  _231
REMARK  107  A    between atoms: _230  and  _233
REMARK  108  A    between atoms: _233  and  _234
REMARK  109  A    between atoms: _239  and  _240
REMARK  110  A    between atoms: _242  and  _244
REMARK  111  A    between atoms: _244  and  _245
REMARK  112  A    between atoms: _244  and  _247
REMARK  113  A    between atoms: _247  and  _248
REMARK  114  A    between atoms: _253  and  _255
REMARK  115  A    between atoms: _255  and  _256
REMARK  116  A    between atoms: _255  and  _258
REMARK  117  A    between atoms: _258  and  _259
REMARK  118  A    between atoms: _269  and  _271
REMARK  119  A    between atoms: _271  and  _272
REMARK  120  A    between atoms: _271  and  _274
REMARK  121  A    between atoms: _277  and  _279
REMARK  122  A    between atoms: _279  and  _280
REMARK  123  A    between atoms: _279  and  _282
REMARK  124  A    between atoms: _285  and  _287
REMARK  125  A    between atoms: _287  and  _288
REMARK  126  A    between atoms: _287  and  _290
REMARK  127  A    between atoms: _290  and  _291
REMARK  128  A    between atoms: _291  and  _292
REMARK  129  A    between atoms: _294  and  _296
REMARK  130  A    between atoms: _296  and  _297
REMARK  131  A    between atoms: _296  and  _299
REMARK  132  A    between atoms: _299  and  _300
REMARK  133  A    between atoms: _300  and  _301
REMARK  134  A    between atoms: _304  and  _306
REMARK  135  A    between atoms: _306  and  _307
REMARK  136  A    between atoms: _306  and  _309
REMARK  137  A    between atoms: _309  and  _310
REMARK  138  A    between atoms: _316  and  _318
REMARK  139  A    between atoms: _318  and  _319
REMARK  140  A    between atoms: _318  and  _321
REMARK  141  A    between atoms: _321  and  _322
REMARK  142  A    between atoms: _325  and  _327
REMARK  143  A    between atoms: _327  and  _328
REMARK  144  A    between atoms: _327  and  _330
REMARK  145  A    between atoms: _330  and  _331
REMARK  146  A    between atoms: _331  and  _332
REMARK  147  A    between atoms: _335  and  _337
REMARK  148  A    between atoms: _337  and  _338
REMARK  149  A    between atoms: _340  and  _342
REMARK  150  A    between atoms: _342  and  _343
REMARK  151  A    between atoms: _345  and  _347
REMARK  152  A    between atoms: _347  and  _348
REMARK  153  A    between atoms: _351  and  _353
REMARK  154  A    between atoms: _353  and  _354
REMARK  155  A    between atoms: _353  and  _356
REMARK  156  A    between atoms: _356  and  _357
REMARK  157  A    between atoms: _360  and  _362
REMARK  158  A    between atoms: _362  and  _363
REMARK  159  A    between atoms: _362  and  _365
REMARK  160  A    between atoms: _365  and  _366
REMARK  161  A    between atoms: _369  and  _371
REMARK  162  A    between atoms: _371  and  _372
REMARK  163  A    between atoms: _371  and  _374
REMARK  164  A    between atoms: _374  and  _375
REMARK  165  A    between atoms: _378  and  _380
REMARK  166  A    between atoms: _380  and  _381
REMARK  167  A    between atoms: _380  and  _383
REMARK  168  A    between atoms: _383  and  _384
REMARK  169  A    between atoms: _389  and  _391
REMARK  170  A    between atoms: _391  and  _392
REMARK  171  A    between atoms: _391  and  _394
REMARK  172  A    between atoms: _394  and  _395
REMARK  173  A    between atoms: _397  and  _399
REMARK  174  A    between atoms: _399  and  _400
REMARK  175  A    between atoms: _399  and  _402
REMARK  176  A    between atoms: _402  and  _403
REMARK  177  A    between atoms: _406  and  _408
REMARK  178  A    between atoms: _408  and  _409
REMARK  179  A    between atoms: _408  and  _411
REMARK  180  A    between atoms: _411  and  _412
REMARK  181  A    between atoms: _414  and  _416
REMARK  182  A    between atoms: _416  and  _417
REMARK  183  A    between atoms: _416  and  _419
REMARK  184  A    between atoms: _419  and  _420
REMARK  185  A    between atoms: _423  and  _425
REMARK  186  A    between atoms: _425  and  _426
REMARK  187  A    between atoms: _425  and  _428
REMARK  188  A    between atoms: _428  and  _429
REMARK  189  A    between atoms: _432  and  _434
REMARK  190  A    between atoms: _434  and  _435
REMARK  191  A    between atoms: _434  and  _437
REMARK  192  A    between atoms: _437  and  _438
REMARK  193  A    between atoms: _441  and  _443
REMARK  194  A    between atoms: _443  and  _444
REMARK  195  A    between atoms: _443  and  _446
REMARK  196  A    between atoms: _446  and  _447
REMARK  197  A    between atoms: _450  and  _452
REMARK  198  A    between atoms: _452  and  _453
REMARK  199  A    between atoms: _452  and  _455
REMARK  200  A    between atoms: _455  and  _456
REMARK  201  A    between atoms: _458  and  _460
REMARK  202  A    between atoms: _460  and  _461
REMARK  203  A    between atoms: _460  and  _463
REMARK  204  A    between atoms: _463  and  _464
REMARK  205  A    between atoms: _467  and  _469
REMARK  206  A    between atoms: _469  and  _470
REMARK  207  A    between atoms: _469  and  _472
REMARK  208  A    between atoms: _472  and  _473
REMARK  209  A    between atoms: _479  and  _481
REMARK  210  A    between atoms: _481  and  _482
REMARK  211  A    between atoms: _484  and  _486
REMARK  212  A    between atoms: _486  and  _487
REMARK  213  A    between atoms: _486  and  _489
REMARK  214  A    between atoms: _489  and  _490
REMARK  215  A    between atoms: _496  and  _498
REMARK  216  A    between atoms: _498  and  _499
REMARK  217  A    between atoms: _498  and  _501
REMARK                            x       y       z     vdW  Elec       q    Type
REMARK                         _______ _______ _______ _____ _____    ______ ____
ROOT
ATOM      1  CA  MET A   4       7.243 -26.166  22.536  0.00  0.00    +0.149 C 
ENDROOT
BRANCH   1   2
ATOM      2  C   MET A   4       6.893 -25.942  23.993  0.00  0.00    +0.241 C 
ATOM      3  N   TYR A   5       7.658 -26.546  24.885  0.00  0.00    -0.297 N 
ATOM      4  H   TYR A   5       8.491 -27.086  24.575  0.00  0.00    +0.150 HD
ATOM      5  O   MET A   4       5.937 -25.243  24.314  0.00  0.00    -0.273 OA
BRANCH   3   6
ATOM      6  CA  TYR A   5       7.337 -26.457  26.296  0.00  0.00    +0.153 C 
BRANCH   6   7
ATOM      7  C   TYR A   5       8.181 -25.386  26.994  0.00  0.00    +0.241 C 
ATOM      8  O   TYR A   5       7.655 -24.517  27.676  0.00  0.00    -0.273 OA
ATOM      9  N   ASN A   6       9.497 -25.484  26.831  0.00  0.00    -0.298 N 
ATOM     10  H   ASN A   6       9.863 -26.196  26.167  0.00  0.00    +0.150 HD
BRANCH   9  11
ATOM     11  CA  ASN A   6      10.450 -24.641  27.539  0.00  0.00    +0.146 C 
BRANCH  11  12
ATOM     12  C   ASN A   6      11.707 -24.454  26.723  0.00  0.00    +0.227 C 
ATOM     13  O   ASN A   6      11.936 -25.154  25.732  0.00  0.00    -0.286 OA
ENDBRANCH  11  12
BRANCH  11  14
ATOM     14  CB  ASN A   6      10.883 -25.279  28.861  0.00  0.00    +0.112 C 
BRANCH  14  15
ATOM     15  CG  ASN A   6       9.784 -25.301  29.897  0.00  0.00    +0.222 C 
ATOM     16  ND2 ASN A   6       9.398 -24.120  30.393  0.00  0.00    -0.329 N 
ATOM     17 HD21 ASN A   6       8.659 -24.079  31.124  0.00  0.00    +0.145 HD
ATOM     18 HD22 ASN A   6       9.837 -23.243  30.048  0.00  0.00    +0.145 HD
ATOM     19  OD1 ASN A   6       9.299 -26.372  30.269  0.00  0.00    -0.275 OA
ENDBRANCH  14  15
ENDBRANCH  11  14
ENDBRANCH   9  11
ENDBRANCH   6   7
BRANCH   6  20
ATOM     20  CB  TYR A   5       7.596 -27.802  26.966  0.00  0.00    +0.055 C 
BRANCH  20  21
ATOM     21  CG  TYR A   5       6.751 -28.968  26.497  0.00  0.00    -0.020 A 
ATOM     22  CD2 TYR A   5       7.277 -30.252  26.495  0.00  0.00    -0.001 A 
ATOM     23  CE2 TYR A   5       6.526 -31.346  26.092  0.00  0.00    +0.036 A 
ATOM     24  CZ  TYR A   5       5.226 -31.167  25.693  0.00  0.00    +0.134 A 
ATOM     25  CE1 TYR A   5       4.667 -29.898  25.678  0.00  0.00    +0.036 A 
ATOM     26  CD1 TYR A   5       5.434 -28.800  26.085  0.00  0.00    -0.001 A 
BRANCH  24  27
ATOM     27  OH  TYR A   5       4.506 -32.270  25.302  0.00  0.00    -0.506 OA
ATOM     28  HH  TYR A   5       4.456 -32.913  26.053  0.00  0.00    +0.292 HD
ENDBRANCH  24  27
ENDBRANCH  20  21
ENDBRANCH   6  20
ENDBRANCH   3   6
ENDBRANCH   1   2
BRANCH   1  31
ATOM     29  C   GLU A   3       5.525 -27.553  21.522  0.00  0.00    +0.241 C 
ATOM     30  O   GLU A   3       6.111 -28.595  21.843  0.00  0.00    -0.273 OA
ATOM     31  N   MET A   4       6.014 -26.348  21.777  0.00  0.00    -0.297 N 
ATOM     32  H   MET A   4       5.507 -25.511  21.426  0.00  0.00    +0.150 HD
BRANCH  29  33
ATOM     33  CA  GLU A   3       4.180 -27.580  20.784  0.00  0.00    +0.149 C 
BRANCH  33  35
ATOM     34  C   VAL A   2       4.717 -27.626  18.418  0.00  0.00    +0.241 C 
ATOM     35  N   GLU A   3       4.288 -28.258  19.504  0.00  0.00    -0.297 N 
ATOM     36  H   GLU A   3       4.023 -29.261  19.437  0.00  0.00    +0.150 HD
ATOM     37  O   VAL A   2       5.040 -26.431  18.389  0.00  0.00    -0.273 OA
BRANCH  34  38
ATOM     38  CA  VAL A   2       4.760 -28.457  17.165  0.00  0.00    +0.148 C 
BRANCH  38  41
ATOM     39  C   VAL A   1       2.843 -27.231  16.264  0.00  0.00    +0.238 C 
ATOM     40  O   VAL A   1       2.185 -27.396  17.291  0.00  0.00    -0.274 OA
ATOM     41  N   VAL A   2       4.070 -27.736  16.093  0.00  0.00    -0.297 N 
ATOM     42  H   VAL A   2       4.546 -27.614  15.176  0.00  0.00    +0.150 HD
BRANCH  39  43
ATOM     43  CA  VAL A   1       2.247 -26.455  15.089  0.00  0.00    +0.145 C 
BRANCH  43  44
ATOM     44  CB  VAL A   1       2.263 -24.948  15.378  0.00  0.00    +0.025 C 
ATOM     45  CG2 VAL A   1       3.672 -24.466  15.669  0.00  0.00    +0.002 C 
ATOM     46  CG1 VAL A   1       1.681 -24.196  14.193  0.00  0.00    +0.002 C 
ENDBRANCH  43  44
BRANCH  43  47
ATOM     47  N   VAL A   1       0.888 -26.917  14.831  0.00  0.00    -0.238 NA
ATOM     48  H   VAL A   1       0.206 -26.964  15.615  0.00  0.00    +0.142 HD
ENDBRANCH  43  47
ENDBRANCH  39  43
ENDBRANCH  38  41
BRANCH  38  49
ATOM     49  CB  VAL A   2       6.244 -28.764  16.834  0.00  0.00    +0.027 C 
ATOM     50  CG2 VAL A   2       6.958 -29.370  18.054  0.00  0.00    +0.002 C 
ATOM     51  CG1 VAL A   2       6.340 -29.695  15.636  0.00  0.00    +0.002 C 
ENDBRANCH  38  49
ENDBRANCH  34  38
ENDBRANCH  33  35
BRANCH  33  52
ATOM     52  CB  GLU A   3       3.104 -28.236  21.649  0.00  0.00    +0.041 C 
BRANCH  52  53
ATOM     53  CG  GLU A   3       2.809 -27.457  22.911  0.00  0.00    +0.116 C 
BRANCH  53  54
ATOM     54  CD  GLU A   3       1.996 -28.248  23.913  0.00  0.00    +0.365 C 
ATOM     55  OE2 GLU A   3       2.062 -27.921  25.120  0.00  0.00    -0.246 OA
ATOM     56  OE1 GLU A   3       1.303 -29.200  23.499  0.00  0.00    -0.246 OA
ENDBRANCH  53  54
ENDBRANCH  52  53
ENDBRANCH  33  52
ENDBRANCH  29  33
ENDBRANCH   1  31
BRANCH   1  57
ATOM     57  CB  MET A   4       8.023 -24.978  21.976  0.00  0.00    +0.041 C 
BRANCH  57  58
ATOM     58  CG  MET A   4       8.451 -25.203  20.530  0.00  0.00    +0.060 C 
BRANCH  58  59
ATOM     59  SD  MET A   4       9.187 -23.761  19.720  0.00  0.00    -0.139 S 
ATOM     60  CE  MET A   4       7.938 -23.386  18.485  0.00  0.00    +0.069 C 
ENDBRANCH  58  59
ENDBRANCH  57  58
ENDBRANCH   1  57
TORSDOF 25
REMARK  Name = ../refined-set-2016/4o0y/4o0y_pocket.pdb
REMARK  217 active torsions:
REMARK  status: ('A' for Active; 'I' for Inactive)
REMARK    1  A    between atoms: _1  and  _3
REMARK    2  A    between atoms: _3  and  _4
REMARK    3  A    between atoms: _3  and  _6
REMARK    4  A    between atoms: _6  and  _7
REMARK    5  A    between atoms: _7  and  _8
REMARK    6  A    between atoms: _8  and  _9
REMARK    7  A    between atoms: _9  and  _10
REMARK    8  A    between atoms: _14  and  _16
REMARK    9  A    between atoms: _16  and  _17
REMARK   10  A    between atoms: _16  and  _19
REMARK   11  A    between atoms: _19  and  _20
REMARK   12  A    between atoms: _23  and  _25
REMARK   13  A    between atoms: _25  and  _26
REMARK   14  A    between atoms: _28  and  _30
REMARK   15  A    between atoms: _30  and  _31
REMARK   16  A    between atoms: _30  and  _33
REMARK   17  A    between atoms: _33  and  _34
REMARK   18  A    between atoms: _34  and  _35
REMARK   19  A    between atoms: _38  and  _40
REMARK   20  A    between atoms: _40  and  _41
REMARK   21  A    between atoms: _43  and  _45
REMARK   22  A    between atoms: _45  and  _46
REMARK   23  A    between atoms: _45  and  _48
REMARK   24  A    between atoms: _48  and  _49
REMARK   25  A    between atoms: _51  and  _53
REMARK   26  A    between atoms: _53  and  _54
REMARK   27  A    between atoms: _53  and  _56
REMARK   28  A    between atoms: _56  and  _57
REMARK   29  A    between atoms: _60  and  _62
REMARK   30  A    between atoms: _62  and  _63
REMARK   31  A    between atoms: _65  and  _67
REMARK   32  A    between atoms: _67  and  _68
REMARK   33  A    between atoms: _67  and  _70
REMARK   34  A    between atoms: _70  and  _71
REMARK   35  A    between atoms: _74  and  _76
REMARK   36  A    between atoms: _76  and  _77
REMARK   37  A    between atoms: _76  and  _79
REMARK   38  A    between atoms: _82  and  _84
REMARK   39  A    between atoms: _84  and  _85
REMARK   40  A    between atoms: _84  and  _87
REMARK   41  A    between atoms: _89  and  _91
REMARK   42  A    between atoms: _91  and  _92
REMARK   43  A    between atoms: _91  and  _94
REMARK   44  A    between atoms: _94  and  _95
REMARK   45  A    between atoms: _98  and  _100
REMARK   46  A    between atoms: _100  and  _101
REMARK   47  A    between atoms: _100  and  _103
REMARK   48  A    between atoms: _106  and  _108
REMARK   49  A    between atoms: _108  and  _109
REMARK   50  A    between atoms: _112  and  _114
REMARK   51  A    between atoms: _114  and  _115
REMARK   52  A    between atoms: _114  and  _117
REMARK   53  A    between atoms: _120  and  _122
REMARK   54  A    between atoms: _122  and  _123
REMARK   55  A    between atoms: _122  and  _125
REMARK   56  A    between atoms: _125  and  _126
REMARK   57  A    between atoms: _126  and  _127
REMARK   58  A    between atoms: _127  and  _128
REMARK   59  A    between atoms: _128  and  _129
REMARK   60  A    between atoms: _133  and  _135
REMARK   61  A    between atoms: _135  and  _136
REMARK   62  A    between atoms: _135  and  _138
REMARK   63  A    between atoms: _138  and  _139
REMARK   64  A    between atoms: _139  and  _140
REMARK   65  A    between atoms: _140  and  _141
REMARK   66  A    between atoms: _141  and  _142
REMARK   67  A    between atoms: _146  and  _148
REMARK   68  A    between atoms: _148  and  _149
REMARK   69  A    between atoms: _148  and  _151
REMARK   70  A    between atoms: _151  and  _152
REMARK   71  A    between atoms: _152  and  _153
REMARK   72  A    between atoms: _155  and  _157
REMARK   73  A    between atoms: _157  and  _158
REMARK   74  A    between atoms: _157  and  _160
REMARK   75  A    between atoms: _160  and  _161
REMARK   76  A    between atoms: _166  and  _168
REMARK   77  A    between atoms: _168  and  _169
REMARK   78  A    between atoms: _168  and  _171
REMARK   79  A    between atoms: _171  and  _172
REMARK   80  A    between atoms: _172  and  _173
REMARK   81  A    between atoms: _176  and  _178
REMARK   82  A    between atoms: _178  and  _179
REMARK   83  A    between atoms: _178  and  _181
REMARK   84  A    between atoms: _184  and  _186
REMARK   85  A    between atoms: _186  and  _187
REMARK   86  A    between atoms: _186  and  _189
REMARK   87  A    between atoms: _189  and  _190
REMARK   88  A    between atoms: _190  and  _191
REMARK   89  A    between atoms: _193  and  _195
REMARK   90  A    between atoms: _195  and  _196
REMARK   91  A    between atoms: _195  and  _198
REMARK   92  A    between atoms: _201  and  _203
REMARK   93  A    between atoms: _203  and  _204
REMARK   94  A    between atoms: _203  and  _206
REMARK   95  A    between atoms: _209  and  _211
REMARK   96  A    between atoms: _211  and  _212
REMARK   97  A    between atoms: _211  and  _214
REMARK   98  A    between atoms: _214  and  _215
REMARK   99  A    between atoms: _215  and  _216
REMARK  100  A    between atoms: _219  and  _221
REMARK  101  A    between atoms: _221  and  _222
REMARK  102  A    between atoms: _221  and  _224
REMARK  103  A    between atoms: _224  and  _225
REMARK  104  A    between atoms: _225  and  _226
REMARK  105  A    between atoms: _228  and  _230
REMARK  106  A    between atoms: _230  and  _231
REMARK  107  A    between atoms: _230  and  _233
REMARK  108  A    between atoms: _233  and  _234
REMARK  109  A    between atoms: _239  and  _240
REMARK  110  A    between atoms: _242  and  _244
REMARK  111  A    between atoms: _244  and  _245
REMARK  112  A    between atoms: _244  and  _247
REMARK  113  A    between atoms: _247  and  _248
REMARK  114  A    between atoms: _253  and  _255
REMARK  115  A    between atoms: _255  and  _256
REMARK  116  A    between atoms: _255  and  _258
REMARK  117  A    between atoms: _258  and  _259
REMARK  118  A    between atoms: _269  and  _271
REMARK  119  A    between atoms: _271  and  _272
REMARK  120  A    between atoms: _271  and  _274
REMARK  121  A    between atoms: _277  and  _279
REMARK  122  A    between atoms: _279  and  _280
REMARK  123  A    between atoms: _279  and  _282
REMARK  124  A    between atoms: _285  and  _287
REMARK  125  A    between atoms: _287  and  _288
REMARK  126  A    between atoms: _287  and  _290
REMARK  127  A    between atoms: _290  and  _291
REMARK  128  A    between atoms: _291  and  _292
REMARK  129  A    between atoms: _294  and  _296
REMARK  130  A    between atoms: _296  and  _297
REMARK  131  A    between atoms: _296  and  _299
REMARK  132  A    between atoms: _299  and  _300
REMARK  133  A    between atoms: _300  and  _301
REMARK  134  A    between atoms: _304  and  _306
REMARK  135  A    between atoms: _306  and  _307
REMARK  136  A    between atoms: _306  and  _309
REMARK  137  A    between atoms: _309  and  _310
REMARK  138  A    between atoms: _316  and  _318
REMARK  139  A    between atoms: _318  and  _319
REMARK  140  A    between atoms: _318  and  _321
REMARK  141  A    between atoms: _321  and  _322
REMARK  142  A    between atoms: _325  and  _327
REMARK  143  A    between atoms: _327  and  _328
REMARK  144  A    between atoms: _327  and  _330
REMARK  145  A    between atoms: _330  and  _331
REMARK  146  A    between atoms: _331  and  _332
REMARK  147  A    between atoms: _335  and  _337
REMARK  148  A    between atoms: _337  and  _338
REMARK  149  A    between atoms: _340  and  _342
REMARK  150  A    between atoms: _342  and  _343
REMARK  151  A    between atoms: _345  and  _347
REMARK  152  A    between atoms: _347  and  _348
REMARK  153  A    between atoms: _351  and  _353
REMARK  154  A    between atoms: _353  and  _354
REMARK  155  A    between atoms: _353  and  _356
REMARK  156  A    between atoms: _356  and  _357
REMARK  157  A    between atoms: _360  and  _362
REMARK  158  A    between atoms: _362  and  _363
REMARK  159  A    between atoms: _362  and  _365
REMARK  160  A    between atoms: _365  and  _366
REMARK  161  A    between atoms: _369  and  _371
REMARK  162  A    between atoms: _371  and  _372
REMARK  163  A    between atoms: _371  and  _374
REMARK  164  A    between atoms: _374  and  _375
REMARK  165  A    between atoms: _378  and  _380
REMARK  166  A    between atoms: _380  and  _381
REMARK  167  A    between atoms: _380  and  _383
REMARK  168  A    between atoms: _383  and  _384
REMARK  169  A    between atoms: _389  and  _391
REMARK  170  A    between atoms: _391  and  _392
REMARK  171  A    between atoms: _391  and  _394
REMARK  172  A    between atoms: _394  and  _395
REMARK  173  A    between atoms: _397  and  _399
REMARK  174  A    between atoms: _399  and  _400
REMARK  175  A    between atoms: _399  and  _402
REMARK  176  A    between atoms: _402  and  _403
REMARK  177  A    between atoms: _406  and  _408
REMARK  178  A    between atoms: _408  and  _409
REMARK  179  A    between atoms: _408  and  _411
REMARK  180  A    between atoms: _411  and  _412
REMARK  181  A    between atoms: _414  and  _416
REMARK  182  A    between atoms: _416  and  _417
REMARK  183  A    between atoms: _416  and  _419
REMARK  184  A    between atoms: _419  and  _420
REMARK  185  A    between atoms: _423  and  _425
REMARK  186  A    between atoms: _425  and  _426
REMARK  187  A    between atoms: _425  and  _428
REMARK  188  A    between atoms: _428  and  _429
REMARK  189  A    between atoms: _432  and  _434
REMARK  190  A    between atoms: _434  and  _435
REMARK  191  A    between atoms: _434  and  _437
REMARK  192  A    between atoms: _437  and  _438
REMARK  193  A    between atoms: _441  and  _443
REMARK  194  A    between atoms: _443  and  _444
REMARK  195  A    between atoms: _443  and  _446
REMARK  196  A    between atoms: _446  and  _447
REMARK  197  A    between atoms: _450  and  _452
REMARK  198  A    between atoms: _452  and  _453
REMARK  199  A    between atoms: _452  and  _455
REMARK  200  A    between atoms: _455  and  _456
REMARK  201  A    between atoms: _458  and  _460
REMARK  202  A    between atoms: _460  and  _461
REMARK  203  A    between atoms: _460  and  _463
REMARK  204  A    between atoms: _463  and  _464
REMARK  205  A    between atoms: _467  and  _469
REMARK  206  A    between atoms: _469  and  _470
REMARK  207  A    between atoms: _469  and  _472
REMARK  208  A    between atoms: _472  and  _473
REMARK  209  A    between atoms: _479  and  _481
REMARK  210  A    between atoms: _481  and  _482
REMARK  211  A    between atoms: _484  and  _486
REMARK  212  A    between atoms: _486  and  _487
REMARK  213  A    between atoms: _486  and  _489
REMARK  214  A    between atoms: _489  and  _490
REMARK  215  A    between atoms: _496  and  _498
REMARK  216  A    between atoms: _498  and  _499
REMARK  217  A    between atoms: _498  and  _501
REMARK                            x       y       z     vdW  Elec       q    Type
REMARK                         _______ _______ _______ _____ _____    ______ ____
ROOT
ATOM      1  C   PHE A   6       6.679 -36.187  19.810  0.00  0.00    +0.241 C 
ATOM      2  O   PHE A   6       5.627 -36.666  20.192  0.00  0.00    -0.273 OA
ATOM      3  N   LEU A   7       6.980 -36.016  18.525  0.00  0.00    -0.297 N 
ATOM      4  H   LEU A   7       7.895 -35.584  18.284  0.00  0.00    +0.150 HD
ENDROOT
BRANCH   1   5
ATOM      5  CA  PHE A   6       7.718 -35.746  20.820  0.00  0.00    +0.153 C 
BRANCH   5   7
ATOM      6  C   GLU A   5       7.203 -33.456  21.498  0.00  0.00    +0.241 C 
ATOM      7  N   PHE A   6       7.114 -34.764  21.708  0.00  0.00    -0.297 N 
ATOM      8  H   PHE A   6       6.591 -35.101  22.542  0.00  0.00    +0.150 HD
ATOM      9  O   GLU A   5       7.799 -32.966  20.538  0.00  0.00    -0.273 OA
BRANCH   6  10
ATOM     10  CA  GLU A   5       6.497 -32.569  22.516  0.00  0.00    +0.149 C 
BRANCH  10  13
ATOM     11  C   MET A   4       8.443 -31.201  23.017  0.00  0.00    +0.241 C 
ATOM     12  O   MET A   4       9.081 -32.179  23.393  0.00  0.00    -0.273 OA
ATOM     13  N   GLU A   5       7.182 -31.284  22.604  0.00  0.00    -0.297 N 
ATOM     14  H   GLU A   5       6.674 -30.416  22.339  0.00  0.00    +0.150 HD
BRANCH  11  15
ATOM     15  CA  MET A   4       9.084 -29.812  23.007  0.00  0.00    +0.149 C 
BRANCH  15  18
ATOM     16  C   VAL A   3      10.795 -28.738  24.373  0.00  0.00    +0.241 C 
ATOM     17  O   VAL A   3      10.079 -27.757  24.569  0.00  0.00    -0.273 OA
ATOM     18  N   MET A   4      10.386 -29.801  23.682  0.00  0.00    -0.297 N 
ATOM     19  H   MET A   4      11.001 -30.638  23.620  0.00  0.00    +0.150 HD
BRANCH  16  20
ATOM     20  CA  VAL A   3      12.220 -28.759  24.912  0.00  0.00    +0.149 C 
BRANCH  20  22
ATOM     21  C   VAL A   2      13.610 -27.404  23.487  0.00  0.00    +0.241 C 
ATOM     22  N   VAL A   3      12.856 -27.503  24.570  0.00  0.00    -0.297 N 
ATOM     23  H   VAL A   3      12.719 -26.672  25.181  0.00  0.00    +0.150 HD
ATOM     24  O   VAL A   2      13.804 -28.345  22.711  0.00  0.00    -0.273 OA
BRANCH  21  25
ATOM     25  CA  VAL A   2      14.253 -26.058  23.250  0.00  0.00    +0.148 C 
BRANCH  25  28
ATOM     26  C   TRP A   1      16.441 -25.708  24.232  0.00  0.00    +0.239 C 
ATOM     27  O   TRP A   1      15.996 -24.910  25.049  0.00  0.00    -0.274 OA
ATOM     28  N   VAL A   2      15.688 -26.268  23.295  0.00  0.00    -0.297 N 
ATOM     29  H   VAL A   2      16.136 -26.871  22.576  0.00  0.00    +0.150 HD
BRANCH  26  30
ATOM     30  CA  TRP A   1      17.909 -26.095  24.242  0.00  0.00    +0.149 C 
BRANCH  30  31
ATOM     31  N   TRP A   1      18.755 -24.912  24.371  0.00  0.00    -0.238 NA
ATOM     32  H   TRP A   1      18.767 -24.380  25.264  0.00  0.00    +0.142 HD
ENDBRANCH  30  31
BRANCH  30  33
ATOM     33  CB  TRP A   1      18.165 -27.073  25.379  0.00  0.00    +0.054 C 
BRANCH  33  34
ATOM     34  CG  TRP A   1      19.468 -27.797  25.307  0.00  0.00    -0.002 A 
ATOM     35  CD2 TRP A   1      19.781 -29.052  25.924  0.00  0.00    +0.013 A 
ATOM     36  CE3 TRP A   1      19.063 -29.939  26.732  0.00  0.00    +0.001 A 
ATOM     37  CZ3 TRP A   1      19.686 -31.094  27.168  0.00  0.00    +0.000 A 
ATOM     38  CH2 TRP A   1      21.012 -31.381  26.811  0.00  0.00    +0.001 A 
ATOM     39  CZ2 TRP A   1      21.741 -30.528  26.029  0.00  0.00    +0.017 A 
ATOM     40  CE2 TRP A   1      21.115 -29.364  25.590  0.00  0.00    +0.056 A 
ATOM     41  NE1 TRP A   1      21.589 -28.353  24.797  0.00  0.00    -0.352 N 
ATOM     42  HE1 TRP A   1      22.542 -28.304  24.383  0.00  0.00    +0.166 HD
ATOM     43  CD1 TRP A   1      20.594 -27.410  24.638  0.00  0.00    +0.068 A 
ENDBRANCH  33  34
ENDBRANCH  30  33
ENDBRANCH  26  30
ENDBRANCH  25  28
BRANCH  25  44
ATOM     44  CB  VAL A   2      13.785 -25.482  21.887  0.00  0.00    +0.027 C 
ATOM     45  CG2 VAL A   2      12.245 -25.525  21.761  0.00  0.00    +0.002 C 
ATOM     46  CG1 VAL A   2      14.280 -24.051  21.716  0.00  0.00    +0.002 C 
ENDBRANCH  25  44
ENDBRANCH  21  25
ENDBRANCH  20  22
BRANCH  20  47
ATOM     47  CB  VAL A   3      12.232 -28.954  26.440  0.00  0.00    +0.027 C 
ATOM     48  CG2 VAL A   3      13.675 -29.077  26.943  0.00  0.00    +0.002 C 
ATOM     49  CG1 VAL A   3      11.427 -30.184  26.829  0.00  0.00    +0.002 C 
ENDBRANCH  20  47
ENDBRANCH  16  20
ENDBRANCH  15  18
BRANCH  15  50
ATOM     50  CB  MET A   4       9.243 -29.331  21.558  0.00  0.00    +0.041 C 
BRANCH  50  51
ATOM     51  CG  MET A   4      10.204 -30.189  20.749  0.00  0.00    +0.060 C 
BRANCH  51  52
ATOM     52  SD  MET A   4      10.525 -29.576  19.084  0.00  0.00    -0.139 S 
ATOM     53  CE  MET A   4      12.280 -29.907  18.970  0.00  0.00    +0.069 C 
ENDBRANCH  51  52
ENDBRANCH  50  51
ENDBRANCH  15  50
ENDBRANCH  11  15
ENDBRANCH  10  13
BRANCH  10  54
ATOM     54  CB  GLU A   5       5.037 -32.383  22.087  0.00  0.00    +0.041 C 
BRANCH  54  55
ATOM     55  CG  GLU A   5       4.909 -31.760  20.673  0.00  0.00    +0.116 C 
BRANCH  55  56
ATOM     56  CD  GLU A   5       3.484 -31.762  20.125  0.00  0.00    +0.365 C 
ATOM     57  OE2 GLU A   5       2.691 -32.645  20.496  0.00  0.00    -0.246 OA
ATOM     58  OE1 GLU A   5       3.159 -30.881  19.312  0.00  0.00    -0.246 OA
ENDBRANCH  55  56
ENDBRANCH  54  55
ENDBRANCH  10  54
ENDBRANCH   6  10
ENDBRANCH   5   7
BRANCH   5  59
ATOM     59  CB  PHE A   6       8.189 -36.956  21.642  0.00  0.00    +0.055 C 
BRANCH  59  60
ATOM     60  CG  PHE A   6       8.676 -38.120  20.812  0.00  0.00    -0.020 A 
ATOM     61  CD2 PHE A   6       8.403 -39.424  21.197  0.00  0.00    -0.004 A 
ATOM     62  CE2 PHE A   6       8.864 -40.506  20.436  0.00  0.00    -0.000 A 
ATOM     63  CZ  PHE A   6       9.626 -40.281  19.283  0.00  0.00    -0.000 A 
ATOM     64  CE1 PHE A   6       9.914 -38.987  18.901  0.00  0.00    -0.000 A 
ATOM     65  CD1 PHE A   6       9.443 -37.908  19.673  0.00  0.00    -0.004 A 
ENDBRANCH  59  60
ENDBRANCH   5  59
ENDBRANCH   1   5
BRANCH   3  66
ATOM     66  CA  LEU A   7       6.086 -36.407  17.434  0.00  0.00    +0.149 C 
BRANCH  66  67
ATOM     67  C   LEU A   7       6.556 -37.743  16.908  0.00  0.00    +0.241 C 
ATOM     68  N   GLU A   8       5.768 -38.779  17.141  0.00  0.00    -0.297 N 
ATOM     69  H   GLU A   8       4.795 -38.622  17.474  0.00  0.00    +0.150 HD
ATOM     70  O   LEU A   7       7.603 -37.829  16.260  0.00  0.00    -0.273 OA
BRANCH  68  71
ATOM     71  CA  GLU A   8       6.251 -40.138  16.935  0.00  0.00    +0.149 C 
BRANCH  71  72
ATOM     72  C   GLU A   8       6.174 -40.658  15.495  0.00  0.00    +0.241 C 
ATOM     73  O   GLU A   8       6.779 -41.685  15.176  0.00  0.00    -0.273 OA
ATOM     74  N   GLY A   9       5.449 -39.960  14.625  0.00  0.00    -0.295 N 
ATOM     75  H   GLY A   9       4.987 -39.079  14.927  0.00  0.00    +0.150 HD
BRANCH  74  76
ATOM     76  CA  GLY A   9       5.299 -40.422  13.253  0.00  0.00    +0.176 C 
BRANCH  76  77
ATOM     77  C   GLY A   9       6.450 -40.026  12.340  0.00  0.00    +0.243 C 
ATOM     78  N   GLY A  10       7.431 -39.315  12.884  0.00  0.00    -0.295 N 
ATOM     79  H   GLY A  10       7.407 -39.104  13.902  0.00  0.00    +0.150 HD
ATOM     80  O   GLY A   9       6.451 -40.351  11.155  0.00  0.00    -0.273 OA
BRANCH  78  81
ATOM     81  CA  GLY A  10       8.537 -38.827  12.080  0.00  0.00    +0.176 C 
BRANCH  81  82
ATOM     82  C   GLY A  10       8.141 -37.740  11.096  0.00  0.00    +0.243 C 
ATOM     83  O   GLY A  10       7.114 -37.093  11.255  0.00  0.00    -0.273 OA
ATOM     84  N   ALA A  11       8.967 -37.554  10.070  0.00  0.00    -0.297 N 
ATOM     85  H   ALA A  11       9.749 -38.226   9.934  0.00  0.00    +0.150 HD
BRANCH  84  86
ATOM     86  CA  ALA A  11       8.825 -36.456   9.133  0.00  0.00    +0.149 C 
ATOM     87  CB  ALA A  11      10.199 -35.836   8.837  0.00  0.00    +0.031 C 
BRANCH  86  88
ATOM     88  C   ALA A  11       8.187 -36.916   7.831  0.00  0.00    +0.241 C 
ATOM     89  O   ALA A  11       8.268 -38.088   7.464  0.00  0.00    -0.273 OA
ATOM     90  N   LEU A  12       7.606 -35.970   7.110  0.00  0.00    -0.297 N 
ATOM     91  H   LEU A  12       7.614 -34.992   7.465  0.00  0.00    +0.150 HD
BRANCH  90  92
ATOM     92  CA  LEU A  12       6.951 -36.253   5.828  0.00  0.00    +0.149 C 
BRANCH  92  93
ATOM     93  C   LEU A  12       7.963 -36.685   4.757  0.00  0.00    +0.241 C 
ATOM     94  N   THR A  13       9.185 -36.179   4.873  0.00  0.00    -0.295 N 
ATOM     95  H   THR A  13       9.386 -35.517   5.649  0.00  0.00    +0.150 HD
ATOM     96  O   LEU A  12       7.636 -37.423   3.829  0.00  0.00    -0.273 OA
BRANCH  94  97
ATOM     97  CA  THR A  13      10.252 -36.526   3.943  0.00  0.00    +0.176 C 
BRANCH  97  98
ATOM     98  C   THR A  13      10.388 -38.044   3.745  0.00  0.00    +0.243 C 
ATOM     99  N   ASP A  14      10.346 -38.789   4.842  0.00  0.00    -0.297 N 
ATOM    100  H   ASP A  14      10.215 -38.333   5.768  0.00  0.00    +0.150 HD
ATOM    101  O   THR A  13      10.511 -38.526   2.622  0.00  0.00    -0.273 OA
BRANCH  99 102
ATOM    102  CA  ASP A  14      10.480 -40.228   4.766  0.00  0.00    +0.148 C 
BRANCH 102 103
ATOM    103  C   ASP A  14       9.346 -40.829   3.949  0.00  0.00    +0.227 C 
ATOM    104  O   ASP A  14       9.524 -41.828   3.272  0.00  0.00    -0.286 OA
ENDBRANCH 102 103
BRANCH 102 105
ATOM    105  CB  ASP A  14      10.485 -40.863   6.153  0.00  0.00    +0.142 C 
BRANCH 105 106
ATOM    106  CG  ASP A  14      10.573 -42.386   6.081  0.00  0.00    +0.367 C 
ATOM    107  OD2 ASP A  14       9.561 -43.086   6.332  0.00  0.00    -0.246 OA
ATOM    108  OD1 ASP A  14      11.663 -42.873   5.729  0.00  0.00    -0.246 OA
ENDBRANCH 105 106
ENDBRANCH 102 105
ENDBRANCH  99 102
ENDBRANCH  97  98
BRANCH  97 109
ATOM    109  CB  THR A  13      11.590 -35.983   4.438  0.00  0.00    +0.137 C 
ATOM    110  CG2 THR A  13      12.703 -36.269   3.405  0.00  0.00    +0.034 C 
BRANCH 109 111
ATOM    111  OG1 THR A  13      11.473 -34.567   4.653  0.00  0.00    -0.382 OA
ATOM    112  HG1 THR A  13      11.228 -34.124   3.802  0.00  0.00    +0.210 HD
ENDBRANCH 109 111
ENDBRANCH  97 109
ENDBRANCH  94  97
ENDBRANCH  92  93
BRANCH  92 113
ATOM    113  CB  LEU A  12       6.211 -34.993   5.353  0.00  0.00    +0.029 C 
BRANCH 113 114
ATOM    114  CG  LEU A  12       5.448 -35.099   4.039  0.00  0.00    +0.002 C 
ATOM    115  CD2 LEU A  12       4.357 -36.169   4.160  0.00  0.00    +0.000 C 
ATOM    116  CD1 LEU A  12       4.855 -33.750   3.658  0.00  0.00    +0.000 C 
ENDBRANCH 113 114
ENDBRANCH  92 113
ENDBRANCH  90  92
ENDBRANCH  86  88
ENDBRANCH  84  86
ENDBRANCH  81  82
ENDBRANCH  78  81
ENDBRANCH  76  77
ENDBRANCH  74  76
ENDBRANCH  71  72
BRANCH  71 117
ATOM    117  CB  GLU A   8       5.530 -41.094  17.883  0.00  0.00    +0.041 C 
BRANCH 117 118
ATOM    118  CG  GLU A   8       4.047 -41.148  17.672  0.00  0.00    +0.116 C 
BRANCH 118 119
ATOM    119  CD  GLU A   8       3.290 -40.055  18.412  0.00  0.00    +0.365 C 
ATOM    120  OE2 GLU A   8       3.733 -39.638  19.483  0.00  0.00    -0.246 OA
ATOM    121  OE1 GLU A   8       2.237 -39.618  17.923  0.00  0.00    -0.246 OA
ENDBRANCH 118 119
ENDBRANCH 117 118
ENDBRANCH  71 117
ENDBRANCH  68  71
ENDBRANCH  66  67
BRANCH  66 122
ATOM    122  CB  LEU A   7       6.155 -35.397  16.279  0.00  0.00    +0.029 C 
BRANCH 122 123
ATOM    123  CG  LEU A   7       5.224 -34.180  16.217  0.00  0.00    +0.002 C 
ATOM    124  CD2 LEU A   7       5.554 -33.211  17.294  0.00  0.00    +0.000 C 
ATOM    125  CD1 LEU A   7       3.784 -34.586  16.311  0.00  0.00    +0.000 C 
ENDBRANCH 122 123
ENDBRANCH  66 122
ENDBRANCH   3  66
TORSDOF 51
REMARK  Name = ../refined-set-2016/4o0y/4o0y_pocket.pdb
REMARK  217 active torsions:
REMARK  status: ('A' for Active; 'I' for Inactive)
REMARK    1  A    between atoms: _1  and  _3
REMARK    2  A    between atoms: _3  and  _4
REMARK    3  A    between atoms: _3  and  _6
REMARK    4  A    between atoms: _6  and  _7
REMARK    5  A    between atoms: _7  and  _8
REMARK    6  A    between atoms: _8  and  _9
REMARK    7  A    between atoms: _9  and  _10
REMARK    8  A    between atoms: _14  and  _16
REMARK    9  A    between atoms: _16  and  _17
REMARK   10  A    between atoms: _16  and  _19
REMARK   11  A    between atoms: _19  and  _20
REMARK   12  A    between atoms: _23  and  _25
REMARK   13  A    between atoms: _25  and  _26
REMARK   14  A    between atoms: _28  and  _30
REMARK   15  A    between atoms: _30  and  _31
REMARK   16  A    between atoms: _30  and  _33
REMARK   17  A    between atoms: _33  and  _34
REMARK   18  A    between atoms: _34  and  _35
REMARK   19  A    between atoms: _38  and  _40
REMARK   20  A    between atoms: _40  and  _41
REMARK   21  A    between atoms: _43  and  _45
REMARK   22  A    between atoms: _45  and  _46
REMARK   23  A    between atoms: _45  and  _48
REMARK   24  A    between atoms: _48  and  _49
REMARK   25  A    between atoms: _51  and  _53
REMARK   26  A    between atoms: _53  and  _54
REMARK   27  A    between atoms: _53  and  _56
REMARK   28  A    between atoms: _56  and  _57
REMARK   29  A    between atoms: _60  and  _62
REMARK   30  A    between atoms: _62  and  _63
REMARK   31  A    between atoms: _65  and  _67
REMARK   32  A    between atoms: _67  and  _68
REMARK   33  A    between atoms: _67  and  _70
REMARK   34  A    between atoms: _70  and  _71
REMARK   35  A    between atoms: _74  and  _76
REMARK   36  A    between atoms: _76  and  _77
REMARK   37  A    between atoms: _76  and  _79
REMARK   38  A    between atoms: _82  and  _84
REMARK   39  A    between atoms: _84  and  _85
REMARK   40  A    between atoms: _84  and  _87
REMARK   41  A    between atoms: _89  and  _91
REMARK   42  A    between atoms: _91  and  _92
REMARK   43  A    between atoms: _91  and  _94
REMARK   44  A    between atoms: _94  and  _95
REMARK   45  A    between atoms: _98  and  _100
REMARK   46  A    between atoms: _100  and  _101
REMARK   47  A    between atoms: _100  and  _103
REMARK   48  A    between atoms: _106  and  _108
REMARK   49  A    between atoms: _108  and  _109
REMARK   50  A    between atoms: _112  and  _114
REMARK   51  A    between atoms: _114  and  _115
REMARK   52  A    between atoms: _114  and  _117
REMARK   53  A    between atoms: _120  and  _122
REMARK   54  A    between atoms: _122  and  _123
REMARK   55  A    between atoms: _122  and  _125
REMARK   56  A    between atoms: _125  and  _126
REMARK   57  A    between atoms: _126  and  _127
REMARK   58  A    between atoms: _127  and  _128
REMARK   59  A    between atoms: _128  and  _129
REMARK   60  A    between atoms: _133  and  _135
REMARK   61  A    between atoms: _135  and  _136
REMARK   62  A    between atoms: _135  and  _138
REMARK   63  A    between atoms: _138  and  _139
REMARK   64  A    between atoms: _139  and  _140
REMARK   65  A    between atoms: _140  and  _141
REMARK   66  A    between atoms: _141  and  _142
REMARK   67  A    between atoms: _146  and  _148
REMARK   68  A    between atoms: _148  and  _149
REMARK   69  A    between atoms: _148  and  _151
REMARK   70  A    between atoms: _151  and  _152
REMARK   71  A    between atoms: _152  and  _153
REMARK   72  A    between atoms: _155  and  _157
REMARK   73  A    between atoms: _157  and  _158
REMARK   74  A    between atoms: _157  and  _160
REMARK   75  A    between atoms: _160  and  _161
REMARK   76  A    between atoms: _166  and  _168
REMARK   77  A    between atoms: _168  and  _169
REMARK   78  A    between atoms: _168  and  _171
REMARK   79  A    between atoms: _171  and  _172
REMARK   80  A    between atoms: _172  and  _173
REMARK   81  A    between atoms: _176  and  _178
REMARK   82  A    between atoms: _178  and  _179
REMARK   83  A    between atoms: _178  and  _181
REMARK   84  A    between atoms: _184  and  _186
REMARK   85  A    between atoms: _186  and  _187
REMARK   86  A    between atoms: _186  and  _189
REMARK   87  A    between atoms: _189  and  _190
REMARK   88  A    between atoms: _190  and  _191
REMARK   89  A    between atoms: _193  and  _195
REMARK   90  A    between atoms: _195  and  _196
REMARK   91  A    between atoms: _195  and  _198
REMARK   92  A    between atoms: _201  and  _203
REMARK   93  A    between atoms: _203  and  _204
REMARK   94  A    between atoms: _203  and  _206
REMARK   95  A    between atoms: _209  and  _211
REMARK   96  A    between atoms: _211  and  _212
REMARK   97  A    between atoms: _211  and  _214
REMARK   98  A    between atoms: _214  and  _215
REMARK   99  A    between atoms: _215  and  _216
REMARK  100  A    between atoms: _219  and  _221
REMARK  101  A    between atoms: _221  and  _222
REMARK  102  A    between atoms: _221  and  _224
REMARK  103  A    between atoms: _224  and  _225
REMARK  104  A    between atoms: _225  and  _226
REMARK  105  A    between atoms: _228  and  _230
REMARK  106  A    between atoms: _230  and  _231
REMARK  107  A    between atoms: _230  and  _233
REMARK  108  A    between atoms: _233  and  _234
REMARK  109  A    between atoms: _239  and  _240
REMARK  110  A    between atoms: _242  and  _244
REMARK  111  A    between atoms: _244  and  _245
REMARK  112  A    between atoms: _244  and  _247
REMARK  113  A    between atoms: _247  and  _248
REMARK  114  A    between atoms: _253  and  _255
REMARK  115  A    between atoms: _255  and  _256
REMARK  116  A    between atoms: _255  and  _258
REMARK  117  A    between atoms: _258  and  _259
REMARK  118  A    between atoms: _269  and  _271
REMARK  119  A    between atoms: _271  and  _272
REMARK  120  A    between atoms: _271  and  _274
REMARK  121  A    between atoms: _277  and  _279
REMARK  122  A    between atoms: _279  and  _280
REMARK  123  A    between atoms: _279  and  _282
REMARK  124  A    between atoms: _285  and  _287
REMARK  125  A    between atoms: _287  and  _288
REMARK  126  A    between atoms: _287  and  _290
REMARK  127  A    between atoms: _290  and  _291
REMARK  128  A    between atoms: _291  and  _292
REMARK  129  A    between atoms: _294  and  _296
REMARK  130  A    between atoms: _296  and  _297
REMARK  131  A    between atoms: _296  and  _299
REMARK  132  A    between atoms: _299  and  _300
REMARK  133  A    between atoms: _300  and  _301
REMARK  134  A    between atoms: _304  and  _306
REMARK  135  A    between atoms: _306  and  _307
REMARK  136  A    between atoms: _306  and  _309
REMARK  137  A    between atoms: _309  and  _310
REMARK  138  A    between atoms: _316  and  _318
REMARK  139  A    between atoms: _318  and  _319
REMARK  140  A    between atoms: _318  and  _321
REMARK  141  A    between atoms: _321  and  _322
REMARK  142  A    between atoms: _325  and  _327
REMARK  143  A    between atoms: _327  and  _328
REMARK  144  A    between atoms: _327  and  _330
REMARK  145  A    between atoms: _330  and  _331
REMARK  146  A    between atoms: _331  and  _332
REMARK  147  A    between atoms: _335  and  _337
REMARK  148  A    between atoms: _337  and  _338
REMARK  149  A    between atoms: _340  and  _342
REMARK  150  A    between atoms: _342  and  _343
REMARK  151  A    between atoms: _345  and  _347
REMARK  152  A    between atoms: _347  and  _348
REMARK  153  A    between atoms: _351  and  _353
REMARK  154  A    between atoms: _353  and  _354
REMARK  155  A    between atoms: _353  and  _356
REMARK  156  A    between atoms: _356  and  _357
REMARK  157  A    between atoms: _360  and  _362
REMARK  158  A    between atoms: _362  and  _363
REMARK  159  A    between atoms: _362  and  _365
REMARK  160  A    between atoms: _365  and  _366
REMARK  161  A    between atoms: _369  and  _371
REMARK  162  A    between atoms: _371  and  _372
REMARK  163  A    between atoms: _371  and  _374
REMARK  164  A    between atoms: _374  and  _375
REMARK  165  A    between atoms: _378  and  _380
REMARK  166  A    between atoms: _380  and  _381
REMARK  167  A    between atoms: _380  and  _383
REMARK  168  A    between atoms: _383  and  _384
REMARK  169  A    between atoms: _389  and  _391
REMARK  170  A    between atoms: _391  and  _392
REMARK  171  A    between atoms: _391  and  _394
REMARK  172  A    between atoms: _394  and  _395
REMARK  173  A    between atoms: _397  and  _399
REMARK  174  A    between atoms: _399  and  _400
REMARK  175  A    between atoms: _399  and  _402
REMARK  176  A    between atoms: _402  and  _403
REMARK  177  A    between atoms: _406  and  _408
REMARK  178  A    between atoms: _408  and  _409
REMARK  179  A    between atoms: _408  and  _411
REMARK  180  A    between atoms: _411  and  _412
REMARK  181  A    between atoms: _414  and  _416
REMARK  182  A    between atoms: _416  and  _417
REMARK  183  A    between atoms: _416  and  _419
REMARK  184  A    between atoms: _419  and  _420
REMARK  185  A    between atoms: _423  and  _425
REMARK  186  A    between atoms: _425  and  _426
REMARK  187  A    between atoms: _425  and  _428
REMARK  188  A    between atoms: _428  and  _429
REMARK  189  A    between atoms: _432  and  _434
REMARK  190  A    between atoms: _434  and  _435
REMARK  191  A    between atoms: _434  and  _437
REMARK  192  A    between atoms: _437  and  _438
REMARK  193  A    between atoms: _441  and  _443
REMARK  194  A    between atoms: _443  and  _444
REMARK  195  A    between atoms: _443  and  _446
REMARK  196  A    between atoms: _446  and  _447
REMARK  197  A    between atoms: _450  and  _452
REMARK  198  A    between atoms: _452  and  _453
REMARK  199  A    between atoms: _452  and  _455
REMARK  200  A    between atoms: _455  and  _456
REMARK  201  A    between atoms: _458  and  _460
REMARK  202  A    between atoms: _460  and  _461
REMARK  203  A    between atoms: _460  and  _463
REMARK  204  A    between atoms: _463  and  _464
REMARK  205  A    between atoms: _467  and  _469
REMARK  206  A    between atoms: _469  and  _470
REMARK  207  A    between atoms: _469  and  _472
REMARK  208  A    between atoms: _472  and  _473
REMARK  209  A    between atoms: _479  and  _481
REMARK  210  A    between atoms: _481  and  _482
REMARK  211  A    between atoms: _484  and  _486
REMARK  212  A    between atoms: _486  and  _487
REMARK  213  A    between atoms: _486  and  _489
REMARK  214  A    between atoms: _489  and  _490
REMARK  215  A    between atoms: _496  and  _498
REMARK  216  A    between atoms: _498  and  _499
REMARK  217  A    between atoms: _498  and  _501
REMARK                            x       y       z     vdW  Elec       q    Type
REMARK                         _______ _______ _______ _____ _____    ______ ____
ROOT
ATOM      1  CB  HIS A   1       7.504 -20.918   7.985  0.00  0.00    +0.072 C 
ENDROOT
BRANCH   1   2
ATOM      2  CG  HIS A   1       8.183 -22.160   8.484  0.00  0.00    +0.082 A 
ATOM      3  CD2 HIS A   1       8.009 -22.874   9.623  0.00  0.00    +0.115 A 
ATOM      4  NE2 HIS A   1       8.907 -23.916   9.593  0.00  0.00    -0.221 NA
ATOM      5  CE1 HIS A   1       9.599 -23.851   8.468  0.00  0.00    +0.199 A 
ATOM      6  ND1 HIS A   1       9.188 -22.796   7.781  0.00  0.00    -0.227 NA
ENDBRANCH   1   2
BRANCH   1   7
ATOM      7  CA  HIS A   1       8.286 -19.639   8.276  0.00  0.00    +0.139 C 
BRANCH   7   8
ATOM      8  N   HIS A   1       7.547 -18.442   7.856  0.00  0.00    -0.239 NA
ATOM      9  H   HIS A   1       6.747 -18.533   7.197  0.00  0.00    +0.142 HD
ENDBRANCH   7   8
BRANCH   7  10
ATOM     10  C   HIS A   1       9.640 -19.709   7.593  0.00  0.00    +0.224 C 
ATOM     11  O   HIS A   1      10.651 -19.964   8.252  0.00  0.00    -0.287 OA
ENDBRANCH   7  10
ENDBRANCH   1   7
TORSDOF 4
REMARK  Name = ../refined-set-2016/4o0y/4o0y_pocket.pdb
REMARK  217 active torsions:
REMARK  status: ('A' for Active; 'I' for Inactive)
REMARK    1  A    between atoms: _1  and  _3
REMARK    2  A    between atoms: _3  and  _4
REMARK    3  A    between atoms: _3  and  _6
REMARK    4  A    between atoms: _6  and  _7
REMARK    5  A    between atoms: _7  and  _8
REMARK    6  A    between atoms: _8  and  _9
REMARK    7  A    between atoms: _9  and  _10
REMARK    8  A    between atoms: _14  and  _16
REMARK    9  A    between atoms: _16  and  _17
REMARK   10  A    between atoms: _16  and  _19
REMARK   11  A    between atoms: _19  and  _20
REMARK   12  A    between atoms: _23  and  _25
REMARK   13  A    between atoms: _25  and  _26
REMARK   14  A    between atoms: _28  and  _30
REMARK   15  A    between atoms: _30  and  _31
REMARK   16  A    between atoms: _30  and  _33
REMARK   17  A    between atoms: _33  and  _34
REMARK   18  A    between atoms: _34  and  _35
REMARK   19  A    between atoms: _38  and  _40
REMARK   20  A    between atoms: _40  and  _41
REMARK   21  A    between atoms: _43  and  _45
REMARK   22  A    between atoms: _45  and  _46
REMARK   23  A    between atoms: _45  and  _48
REMARK   24  A    between atoms: _48  and  _49
REMARK   25  A    between atoms: _51  and  _53
REMARK   26  A    between atoms: _53  and  _54
REMARK   27  A    between atoms: _53  and  _56
REMARK   28  A    between atoms: _56  and  _57
REMARK   29  A    between atoms: _60  and  _62
REMARK   30  A    between atoms: _62  and  _63
REMARK   31  A    between atoms: _65  and  _67
REMARK   32  A    between atoms: _67  and  _68
REMARK   33  A    between atoms: _67  and  _70
REMARK   34  A    between atoms: _70  and  _71
REMARK   35  A    between atoms: _74  and  _76
REMARK   36  A    between atoms: _76  and  _77
REMARK   37  A    between atoms: _76  and  _79
REMARK   38  A    between atoms: _82  and  _84
REMARK   39  A    between atoms: _84  and  _85
REMARK   40  A    between atoms: _84  and  _87
REMARK   41  A    between atoms: _89  and  _91
REMARK   42  A    between atoms: _91  and  _92
REMARK   43  A    between atoms: _91  and  _94
REMARK   44  A    between atoms: _94  and  _95
REMARK   45  A    between atoms: _98  and  _100
REMARK   46  A    between atoms: _100  and  _101
REMARK   47  A    between atoms: _100  and  _103
REMARK   48  A    between atoms: _106  and  _108
REMARK   49  A    between atoms: _108  and  _109
REMARK   50  A    between atoms: _112  and  _114
REMARK   51  A    between atoms: _114  and  _115
REMARK   52  A    between atoms: _114  and  _117
REMARK   53  A    between atoms: _120  and  _122
REMARK   54  A    between atoms: _122  and  _123
REMARK   55  A    between atoms: _122  and  _125
REMARK   56  A    between atoms: _125  and  _126
REMARK   57  A    between atoms: _126  and  _127
REMARK   58  A    between atoms: _127  and  _128
REMARK   59  A    between atoms: _128  and  _129
REMARK   60  A    between atoms: _133  and  _135
REMARK   61  A    between atoms: _135  and  _136
REMARK   62  A    between atoms: _135  and  _138
REMARK   63  A    between atoms: _138  and  _139
REMARK   64  A    between atoms: _139  and  _140
REMARK   65  A    between atoms: _140  and  _141
REMARK   66  A    between atoms: _141  and  _142
REMARK   67  A    between atoms: _146  and  _148
REMARK   68  A    between atoms: _148  and  _149
REMARK   69  A    between atoms: _148  and  _151
REMARK   70  A    between atoms: _151  and  _152
REMARK   71  A    between atoms: _152  and  _153
REMARK   72  A    between atoms: _155  and  _157
REMARK   73  A    between atoms: _157  and  _158
REMARK   74  A    between atoms: _157  and  _160
REMARK   75  A    between atoms: _160  and  _161
REMARK   76  A    between atoms: _166  and  _168
REMARK   77  A    between atoms: _168  and  _169
REMARK   78  A    between atoms: _168  and  _171
REMARK   79  A    between atoms: _171  and  _172
REMARK   80  A    between atoms: _172  and  _173
REMARK   81  A    between atoms: _176  and  _178
REMARK   82  A    between atoms: _178  and  _179
REMARK   83  A    between atoms: _178  and  _181
REMARK   84  A    between atoms: _184  and  _186
REMARK   85  A    between atoms: _186  and  _187
REMARK   86  A    between atoms: _186  and  _189
REMARK   87  A    between atoms: _189  and  _190
REMARK   88  A    between atoms: _190  and  _191
REMARK   89  A    between atoms: _193  and  _195
REMARK   90  A    between atoms: _195  and  _196
REMARK   91  A    between atoms: _195  and  _198
REMARK   92  A    between atoms: _201  and  _203
REMARK   93  A    between atoms: _203  and  _204
REMARK   94  A    between atoms: _203  and  _206
REMARK   95  A    between atoms: _209  and  _211
REMARK   96  A    between atoms: _211  and  _212
REMARK   97  A    between atoms: _211  and  _214
REMARK   98  A    between atoms: _214  and  _215
REMARK   99  A    between atoms: _215  and  _216
REMARK  100  A    between atoms: _219  and  _221
REMARK  101  A    between atoms: _221  and  _222
REMARK  102  A    between atoms: _221  and  _224
REMARK  103  A    between atoms: _224  and  _225
REMARK  104  A    between atoms: _225  and  _226
REMARK  105  A    between atoms: _228  and  _230
REMARK  106  A    between atoms: _230  and  _231
REMARK  107  A    between atoms: _230  and  _233
REMARK  108  A    between atoms: _233  and  _234
REMARK  109  A    between atoms: _239  and  _240
REMARK  110  A    between atoms: _242  and  _244
REMARK  111  A    between atoms: _244  and  _245
REMARK  112  A    between atoms: _244  and  _247
REMARK  113  A    between atoms: _247  and  _248
REMARK  114  A    between atoms: _253  and  _255
REMARK  115  A    between atoms: _255  and  _256
REMARK  116  A    between atoms: _255  and  _258
REMARK  117  A    between atoms: _258  and  _259
REMARK  118  A    between atoms: _269  and  _271
REMARK  119  A    between atoms: _271  and  _272
REMARK  120  A    between atoms: _271  and  _274
REMARK  121  A    between atoms: _277  and  _279
REMARK  122  A    between atoms: _279  and  _280
REMARK  123  A    between atoms: _279  and  _282
REMARK  124  A    between atoms: _285  and  _287
REMARK  125  A    between atoms: _287  and  _288
REMARK  126  A    between atoms: _287  and  _290
REMARK  127  A    between atoms: _290  and  _291
REMARK  128  A    between atoms: _291  and  _292
REMARK  129  A    between atoms: _294  and  _296
REMARK  130  A    between atoms: _296  and  _297
REMARK  131  A    between atoms: _296  and  _299
REMARK  132  A    between atoms: _299  and  _300
REMARK  133  A    between atoms: _300  and  _301
REMARK  134  A    between atoms: _304  and  _306
REMARK  135  A    between atoms: _306  and  _307
REMARK  136  A    between atoms: _306  and  _309
REMARK  137  A    between atoms: _309  and  _310
REMARK  138  A    between atoms: _316  and  _318
REMARK  139  A    between atoms: _318  and  _319
REMARK  140  A    between atoms: _318  and  _321
REMARK  141  A    between atoms: _321  and  _322
REMARK  142  A    between atoms: _325  and  _327
REMARK  143  A    between atoms: _327  and  _328
REMARK  144  A    between atoms: _327  and  _330
REMARK  145  A    between atoms: _330  and  _331
REMARK  146  A    between atoms: _331  and  _332
REMARK  147  A    between atoms: _335  and  _337
REMARK  148  A    between atoms: _337  and  _338
REMARK  149  A    between atoms: _340  and  _342
REMARK  150  A    between atoms: _342  and  _343
REMARK  151  A    between atoms: _345  and  _347
REMARK  152  A    between atoms: _347  and  _348
REMARK  153  A    between atoms: _351  and  _353
REMARK  154  A    between atoms: _353  and  _354
REMARK  155  A    between atoms: _353  and  _356
REMARK  156  A    between atoms: _356  and  _357
REMARK  157  A    between atoms: _360  and  _362
REMARK  158  A    between atoms: _362  and  _363
REMARK  159  A    between atoms: _362  and  _365
REMARK  160  A    between atoms: _365  and  _366
REMARK  161  A    between atoms: _369  and  _371
REMARK  162  A    between atoms: _371  and  _372
REMARK  163  A    between atoms: _371  and  _374
REMARK  164  A    between atoms: _374  and  _375
REMARK  165  A    between atoms: _378  and  _380
REMARK  166  A    between atoms: _380  and  _381
REMARK  167  A    between atoms: _380  and  _383
REMARK  168  A    between atoms: _383  and  _384
REMARK  169  A    between atoms: _389  and  _391
REMARK  170  A    between atoms: _391  and  _392
REMARK  171  A    between atoms: _391  and  _394
REMARK  172  A    between atoms: _394  and  _395
REMARK  173  A    between atoms: _397  and  _399
REMARK  174  A    between atoms: _399  and  _400
REMARK  175  A    between atoms: _399  and  _402
REMARK  176  A    between atoms: _402  and  _403
REMARK  177  A    between atoms: _406  and  _408
REMARK  178  A    between atoms: _408  and  _409
REMARK  179  A    between atoms: _408  and  _411
REMARK  180  A    between atoms: _411  and  _412
REMARK  181  A    between atoms: _414  and  _416
REMARK  182  A    between atoms: _416  and  _417
REMARK  183  A    between atoms: _416  and  _419
REMARK  184  A    between atoms: _419  and  _420
REMARK  185  A    between atoms: _423  and  _425
REMARK  186  A    between atoms: _425  and  _426
REMARK  187  A    between atoms: _425  and  _428
REMARK  188  A    between atoms: _428  and  _429
REMARK  189  A    between atoms: _432  and  _434
REMARK  190  A    between atoms: _434  and  _435
REMARK  191  A    between atoms: _434  and  _437
REMARK  192  A    between atoms: _437  and  _438
REMARK  193  A    between atoms: _441  and  _443
REMARK  194  A    between atoms: _443  and  _444
REMARK  195  A    between atoms: _443  and  _446
REMARK  196  A    between atoms: _446  and  _447
REMARK  197  A    between atoms: _450  and  _452
REMARK  198  A    between atoms: _452  and  _453
REMARK  199  A    between atoms: _452  and  _455
REMARK  200  A    between atoms: _455  and  _456
REMARK  201  A    between atoms: _458  and  _460
REMARK  202  A    between atoms: _460  and  _461
REMARK  203  A    between atoms: _460  and  _463
REMARK  204  A    between atoms: _463  and  _464
REMARK  205  A    between atoms: _467  and  _469
REMARK  206  A    between atoms: _469  and  _470
REMARK  207  A    between atoms: _469  and  _472
REMARK  208  A    between atoms: _472  and  _473
REMARK  209  A    between atoms: _479  and  _481
REMARK  210  A    between atoms: _481  and  _482
REMARK  211  A    between atoms: _484  and  _486
REMARK  212  A    between atoms: _486  and  _487
REMARK  213  A    between atoms: _486  and  _489
REMARK  214  A    between atoms: _489  and  _490
REMARK  215  A    between atoms: _496  and  _498
REMARK  216  A    between atoms: _498  and  _499
REMARK  217  A    between atoms: _498  and  _501
REMARK                            x       y       z     vdW  Elec       q    Type
REMARK                         _______ _______ _______ _____ _____    ______ ____
ROOT
ATOM      1  C   SER A   3       8.117 -29.813   8.687  0.00  0.00    +0.243 C 
ATOM      2  O   SER A   3       7.485 -29.216   9.549  0.00  0.00    -0.273 OA
ATOM      3  N   ILE A   4       7.668 -30.927   8.122  0.00  0.00    -0.297 N 
ATOM      4  H   ILE A   4       8.253 -31.416   7.415  0.00  0.00    +0.150 HD
ENDROOT
BRANCH   3   5
ATOM      5  CA  ILE A   4       6.362 -31.474   8.482  0.00  0.00    +0.149 C 
BRANCH   5   6
ATOM      6  C   ILE A   4       6.505 -32.754   9.306  0.00  0.00    +0.241 C 
ATOM      7  N   LEU A   5       6.040 -32.717  10.557  0.00  0.00    -0.297 N 
ATOM      8  H   LEU A   5       5.646 -31.829  10.928  0.00  0.00    +0.150 HD
ATOM      9  O   ILE A   4       7.026 -33.759   8.811  0.00  0.00    -0.273 OA
BRANCH   7  10
ATOM     10  CA  LEU A   5       6.074 -33.898  11.414  0.00  0.00    +0.149 C 
BRANCH  10  11
ATOM     11  C   LEU A   5       4.676 -34.459  11.628  0.00  0.00    +0.241 C 
ATOM     12  N   LEU A   6       4.617 -35.726  12.017  0.00  0.00    -0.298 N 
ATOM     13  H   LEU A   6       5.502 -36.219  12.253  0.00  0.00    +0.150 HD
ATOM     14  O   LEU A   5       3.683 -33.755  11.483  0.00  0.00    -0.273 OA
BRANCH  12  15
ATOM     15  CA  LEU A   6       3.364 -36.451  12.126  0.00  0.00    +0.137 C 
BRANCH  15  16
ATOM     16  C   LEU A   6       3.218 -37.137  13.481  0.00  0.00    +0.227 C 
ATOM     17  O   LEU A   6       4.209 -37.570  14.088  0.00  0.00    -0.286 OA
ENDBRANCH  15  16
BRANCH  15  18
ATOM     18  CB  LEU A   6       3.292 -37.498  11.019  0.00  0.00    +0.028 C 
BRANCH  18  19
ATOM     19  CG  LEU A   6       3.476 -36.933   9.600  0.00  0.00    +0.002 C 
ATOM     20  CD2 LEU A   6       2.251 -36.167   9.177  0.00  0.00    +0.000 C 
ATOM     21  CD1 LEU A   6       3.752 -38.026   8.608  0.00  0.00    +0.000 C 
ENDBRANCH  18  19
ENDBRANCH  15  18
ENDBRANCH  12  15
ENDBRANCH  10  11
BRANCH  10  22
ATOM     22  CB  LEU A   5       6.728 -33.596  12.769  0.00  0.00    +0.029 C 
BRANCH  22  23
ATOM     23  CG  LEU A   5       8.133 -32.976  12.743  0.00  0.00    +0.002 C 
ATOM     24  CD2 LEU A   5       8.589 -32.677  14.168  0.00  0.00    +0.000 C 
ATOM     25  CD1 LEU A   5       9.169 -33.857  12.032  0.00  0.00    +0.000 C 
ENDBRANCH  22  23
ENDBRANCH  10  22
ENDBRANCH   7  10
ENDBRANCH   5   6
BRANCH   5  26
ATOM     26  CB  ILE A   4       5.508 -31.791   7.208  0.00  0.00    +0.027 C 
ATOM     27  CG2 ILE A   4       4.132 -32.333   7.579  0.00  0.00    +0.002 C 
BRANCH  26  28
ATOM     28  CG1 ILE A   4       5.415 -30.575   6.273  0.00  0.00    +0.002 C 
ATOM     29  CD1 ILE A   4       4.974 -29.295   6.919  0.00  0.00    +0.000 C 
ENDBRANCH  26  28
ENDBRANCH   5  26
ENDBRANCH   3   5
BRANCH   1  30
ATOM     30  CA  SER A   3       9.489 -29.305   8.242  0.00  0.00    +0.178 C 
BRANCH  30  33
ATOM     31  C   ASP A   2      10.767 -31.227   7.508  0.00  0.00    +0.241 C 
ATOM     32  O   ASP A   2      10.858 -31.659   8.647  0.00  0.00    -0.273 OA
ATOM     33  N   SER A   3      10.098 -30.122   7.211  0.00  0.00    -0.295 N 
ATOM     34  H   SER A   3      10.008 -29.835   6.216  0.00  0.00    +0.150 HD
BRANCH  31  35
ATOM     35  CA  ASP A   2      11.434 -31.943   6.344  0.00  0.00    +0.160 C 
BRANCH  35  38
ATOM     36  C   SER A   1       9.420 -32.227   5.002  0.00  0.00    +0.241 C 
ATOM     37  O   SER A   1       8.859 -32.857   5.906  0.00  0.00    -0.274 OA
ATOM     38  N   ASP A   2      10.662 -31.753   5.115  0.00  0.00    -0.297 N 
ATOM     39  H   ASP A   2      11.089 -31.240   4.317  0.00  0.00    +0.150 HD
BRANCH  36  40
ATOM     40  CA  SER A   1       8.700 -31.975   3.675  0.00  0.00    +0.174 C 
BRANCH  40  41
ATOM     41  N   SER A   1       9.171 -30.763   2.991  0.00  0.00    -0.236 NA
ATOM     42  H   SER A   1       9.592 -30.833   2.043  0.00  0.00    +0.142 HD
ENDBRANCH  40  41
BRANCH  40  43
ATOM     43  CB  SER A   1       8.814 -33.213   2.769  0.00  0.00    +0.163 C 
BRANCH  43  44
ATOM     44  OG  SER A   1      10.169 -33.551   2.535  0.00  0.00    -0.380 OA
ATOM     45  H   SER A   1      10.613 -33.748   3.398  0.00  0.00    +0.211 HD
ENDBRANCH  43  44
ENDBRANCH  40  43
ENDBRANCH  36  40
ENDBRANCH  35  38
BRANCH  35  46
ATOM     46  CB  ASP A   2      12.860 -31.414   6.201  0.00  0.00    +0.143 C 
BRANCH  46  47
ATOM     47  CG  ASP A   2      13.605 -32.016   5.024  0.00  0.00    +0.367 C 
ATOM     48  OD2 ASP A   2      14.675 -32.608   5.258  0.00  0.00    -0.246 OA
ATOM     49  OD1 ASP A   2      13.149 -31.867   3.865  0.00  0.00    -0.246 OA
ENDBRANCH  46  47
ENDBRANCH  35  46
ENDBRANCH  31  35
ENDBRANCH  30  33
BRANCH  30  50
ATOM     50  CB  SER A   3       9.416 -27.854   7.769  0.00  0.00    +0.166 C 
BRANCH  50  51
ATOM     51  OG  SER A   3      10.716 -27.404   7.413  0.00  0.00    -0.380 OA
ATOM     52  H   SER A   3      10.666 -26.464   7.107  0.00  0.00    +0.211 HD
ENDBRANCH  50  51
ENDBRANCH  30  50
ENDBRANCH   1  30
TORSDOF 24
REMARK  Name = ../refined-set-2016/4o0y/4o0y_pocket.pdb
REMARK  217 active torsions:
REMARK  status: ('A' for Active; 'I' for Inactive)
REMARK    1  A    between atoms: _1  and  _3
REMARK    2  A    between atoms: _3  and  _4
REMARK    3  A    between atoms: _3  and  _6
REMARK    4  A    between atoms: _6  and  _7
REMARK    5  A    between atoms: _7  and  _8
REMARK    6  A    between atoms: _8  and  _9
REMARK    7  A    between atoms: _9  and  _10
REMARK    8  A    between atoms: _14  and  _16
REMARK    9  A    between atoms: _16  and  _17
REMARK   10  A    between atoms: _16  and  _19
REMARK   11  A    between atoms: _19  and  _20
REMARK   12  A    between atoms: _23  and  _25
REMARK   13  A    between atoms: _25  and  _26
REMARK   14  A    between atoms: _28  and  _30
REMARK   15  A    between atoms: _30  and  _31
REMARK   16  A    between atoms: _30  and  _33
REMARK   17  A    between atoms: _33  and  _34
REMARK   18  A    between atoms: _34  and  _35
REMARK   19  A    between atoms: _38  and  _40
REMARK   20  A    between atoms: _40  and  _41
REMARK   21  A    between atoms: _43  and  _45
REMARK   22  A    between atoms: _45  and  _46
REMARK   23  A    between atoms: _45  and  _48
REMARK   24  A    between atoms: _48  and  _49
REMARK   25  A    between atoms: _51  and  _53
REMARK   26  A    between atoms: _53  and  _54
REMARK   27  A    between atoms: _53  and  _56
REMARK   28  A    between atoms: _56  and  _57
REMARK   29  A    between atoms: _60  and  _62
REMARK   30  A    between atoms: _62  and  _63
REMARK   31  A    between atoms: _65  and  _67
REMARK   32  A    between atoms: _67  and  _68
REMARK   33  A    between atoms: _67  and  _70
REMARK   34  A    between atoms: _70  and  _71
REMARK   35  A    between atoms: _74  and  _76
REMARK   36  A    between atoms: _76  and  _77
REMARK   37  A    between atoms: _76  and  _79
REMARK   38  A    between atoms: _82  and  _84
REMARK   39  A    between atoms: _84  and  _85
REMARK   40  A    between atoms: _84  and  _87
REMARK   41  A    between atoms: _89  and  _91
REMARK   42  A    between atoms: _91  and  _92
REMARK   43  A    between atoms: _91  and  _94
REMARK   44  A    between atoms: _94  and  _95
REMARK   45  A    between atoms: _98  and  _100
REMARK   46  A    between atoms: _100  and  _101
REMARK   47  A    between atoms: _100  and  _103
REMARK   48  A    between atoms: _106  and  _108
REMARK   49  A    between atoms: _108  and  _109
REMARK   50  A    between atoms: _112  and  _114
REMARK   51  A    between atoms: _114  and  _115
REMARK   52  A    between atoms: _114  and  _117
REMARK   53  A    between atoms: _120  and  _122
REMARK   54  A    between atoms: _122  and  _123
REMARK   55  A    between atoms: _122  and  _125
REMARK   56  A    between atoms: _125  and  _126
REMARK   57  A    between atoms: _126  and  _127
REMARK   58  A    between atoms: _127  and  _128
REMARK   59  A    between atoms: _128  and  _129
REMARK   60  A    between atoms: _133  and  _135
REMARK   61  A    between atoms: _135  and  _136
REMARK   62  A    between atoms: _135  and  _138
REMARK   63  A    between atoms: _138  and  _139
REMARK   64  A    between atoms: _139  and  _140
REMARK   65  A    between atoms: _140  and  _141
REMARK   66  A    between atoms: _141  and  _142
REMARK   67  A    between atoms: _146  and  _148
REMARK   68  A    between atoms: _148  and  _149
REMARK   69  A    between atoms: _148  and  _151
REMARK   70  A    between atoms: _151  and  _152
REMARK   71  A    between atoms: _152  and  _153
REMARK   72  A    between atoms: _155  and  _157
REMARK   73  A    between atoms: _157  and  _158
REMARK   74  A    between atoms: _157  and  _160
REMARK   75  A    between atoms: _160  and  _161
REMARK   76  A    between atoms: _166  and  _168
REMARK   77  A    between atoms: _168  and  _169
REMARK   78  A    between atoms: _168  and  _171
REMARK   79  A    between atoms: _171  and  _172
REMARK   80  A    between atoms: _172  and  _173
REMARK   81  A    between atoms: _176  and  _178
REMARK   82  A    between atoms: _178  and  _179
REMARK   83  A    between atoms: _178  and  _181
REMARK   84  A    between atoms: _184  and  _186
REMARK   85  A    between atoms: _186  and  _187
REMARK   86  A    between atoms: _186  and  _189
REMARK   87  A    between atoms: _189  and  _190
REMARK   88  A    between atoms: _190  and  _191
REMARK   89  A    between atoms: _193  and  _195
REMARK   90  A    between atoms: _195  and  _196
REMARK   91  A    between atoms: _195  and  _198
REMARK   92  A    between atoms: _201  and  _203
REMARK   93  A    between atoms: _203  and  _204
REMARK   94  A    between atoms: _203  and  _206
REMARK   95  A    between atoms: _209  and  _211
REMARK   96  A    between atoms: _211  and  _212
REMARK   97  A    between atoms: _211  and  _214
REMARK   98  A    between atoms: _214  and  _215
REMARK   99  A    between atoms: _215  and  _216
REMARK  100  A    between atoms: _219  and  _221
REMARK  101  A    between atoms: _221  and  _222
REMARK  102  A    between atoms: _221  and  _224
REMARK  103  A    between atoms: _224  and  _225
REMARK  104  A    between atoms: _225  and  _226
REMARK  105  A    between atoms: _228  and  _230
REMARK  106  A    between atoms: _230  and  _231
REMARK  107  A    between atoms: _230  and  _233
REMARK  108  A    between atoms: _233  and  _234
REMARK  109  A    between atoms: _239  and  _240
REMARK  110  A    between atoms: _242  and  _244
REMARK  111  A    between atoms: _244  and  _245
REMARK  112  A    between atoms: _244  and  _247
REMARK  113  A    between atoms: _247  and  _248
REMARK  114  A    between atoms: _253  and  _255
REMARK  115  A    between atoms: _255  and  _256
REMARK  116  A    between atoms: _255  and  _258
REMARK  117  A    between atoms: _258  and  _259
REMARK  118  A    between atoms: _269  and  _271
REMARK  119  A    between atoms: _271  and  _272
REMARK  120  A    between atoms: _271  and  _274
REMARK  121  A    between atoms: _277  and  _279
REMARK  122  A    between atoms: _279  and  _280
REMARK  123  A    between atoms: _279  and  _282
REMARK  124  A    between atoms: _285  and  _287
REMARK  125  A    between atoms: _287  and  _288
REMARK  126  A    between atoms: _287  and  _290
REMARK  127  A    between atoms: _290  and  _291
REMARK  128  A    between atoms: _291  and  _292
REMARK  129  A    between atoms: _294  and  _296
REMARK  130  A    between atoms: _296  and  _297
REMARK  131  A    between atoms: _296  and  _299
REMARK  132  A    between atoms: _299  and  _300
REMARK  133  A    between atoms: _300  and  _301
REMARK  134  A    between atoms: _304  and  _306
REMARK  135  A    between atoms: _306  and  _307
REMARK  136  A    between atoms: _306  and  _309
REMARK  137  A    between atoms: _309  and  _310
REMARK  138  A    between atoms: _316  and  _318
REMARK  139  A    between atoms: _318  and  _319
REMARK  140  A    between atoms: _318  and  _321
REMARK  141  A    between atoms: _321  and  _322
REMARK  142  A    between atoms: _325  and  _327
REMARK  143  A    between atoms: _327  and  _328
REMARK  144  A    between atoms: _327  and  _330
REMARK  145  A    between atoms: _330  and  _331
REMARK  146  A    between atoms: _331  and  _332
REMARK  147  A    between atoms: _335  and  _337
REMARK  148  A    between atoms: _337  and  _338
REMARK  149  A    between atoms: _340  and  _342
REMARK  150  A    between atoms: _342  and  _343
REMARK  151  A    between atoms: _345  and  _347
REMARK  152  A    between atoms: _347  and  _348
REMARK  153  A    between atoms: _351  and  _353
REMARK  154  A    between atoms: _353  and  _354
REMARK  155  A    between atoms: _353  and  _356
REMARK  156  A    between atoms: _356  and  _357
REMARK  157  A    between atoms: _360  and  _362
REMARK  158  A    between atoms: _362  and  _363
REMARK  159  A    between atoms: _362  and  _365
REMARK  160  A    between atoms: _365  and  _366
REMARK  161  A    between atoms: _369  and  _371
REMARK  162  A    between atoms: _371  and  _372
REMARK  163  A    between atoms: _371  and  _374
REMARK  164  A    between atoms: _374  and  _375
REMARK  165  A    between atoms: _378  and  _380
REMARK  166  A    between atoms: _380  and  _381
REMARK  167  A    between atoms: _380  and  _383
REMARK  168  A    between atoms: _383  and  _384
REMARK  169  A    between atoms: _389  and  _391
REMARK  170  A    between atoms: _391  and  _392
REMARK  171  A    between atoms: _391  and  _394
REMARK  172  A    between atoms: _394  and  _395
REMARK  173  A    between atoms: _397  and  _399
REMARK  174  A    between atoms: _399  and  _400
REMARK  175  A    between atoms: _399  and  _402
REMARK  176  A    between atoms: _402  and  _403
REMARK  177  A    between atoms: _406  and  _408
REMARK  178  A    between atoms: _408  and  _409
REMARK  179  A    between atoms: _408  and  _411
REMARK  180  A    between atoms: _411  and  _412
REMARK  181  A    between atoms: _414  and  _416
REMARK  182  A    between atoms: _416  and  _417
REMARK  183  A    between atoms: _416  and  _419
REMARK  184  A    between atoms: _419  and  _420
REMARK  185  A    between atoms: _423  and  _425
REMARK  186  A    between atoms: _425  and  _426
REMARK  187  A    between atoms: _425  and  _428
REMARK  188  A    between atoms: _428  and  _429
REMARK  189  A    between atoms: _432  and  _434
REMARK  190  A    between atoms: _434  and  _435
REMARK  191  A    between atoms: _434  and  _437
REMARK  192  A    between atoms: _437  and  _438
REMARK  193  A    between atoms: _441  and  _443
REMARK  194  A    between atoms: _443  and  _444
REMARK  195  A    between atoms: _443  and  _446
REMARK  196  A    between atoms: _446  and  _447
REMARK  197  A    between atoms: _450  and  _452
REMARK  198  A    between atoms: _452  and  _453
REMARK  199  A    between atoms: _452  and  _455
REMARK  200  A    between atoms: _455  and  _456
REMARK  201  A    between atoms: _458  and  _460
REMARK  202  A    between atoms: _460  and  _461
REMARK  203  A    between atoms: _460  and  _463
REMARK  204  A    between atoms: _463  and  _464
REMARK  205  A    between atoms: _467  and  _469
REMARK  206  A    between atoms: _469  and  _470
REMARK  207  A    between atoms: _469  and  _472
REMARK  208  A    between atoms: _472  and  _473
REMARK  209  A    between atoms: _479  and  _481
REMARK  210  A    between atoms: _481  and  _482
REMARK  211  A    between atoms: _484  and  _486
REMARK  212  A    between atoms: _486  and  _487
REMARK  213  A    between atoms: _486  and  _489
REMARK  214  A    between atoms: _489  and  _490
REMARK  215  A    between atoms: _496  and  _498
REMARK  216  A    between atoms: _498  and  _499
REMARK  217  A    between atoms: _498  and  _501
REMARK                            x       y       z     vdW  Elec       q    Type
REMARK                         _______ _______ _______ _____ _____    ______ ____
ROOT
ATOM      1  CA  PHE A   4      10.984 -22.510  13.139  0.00  0.00    +0.153 C 
ENDROOT
BRANCH   1   2
ATOM      2  C   PHE A   4      12.316 -21.790  13.274  0.00  0.00    +0.241 C 
ATOM      3  O   PHE A   4      12.347 -20.585  13.461  0.00  0.00    -0.273 OA
ATOM      4  N   GLY A   5      13.410 -22.536  13.150  0.00  0.00    -0.295 N 
ATOM      5  H   GLY A   5      13.306 -23.554  12.966  0.00  0.00    +0.150 HD
BRANCH   4   6
ATOM      6  CA  GLY A   5      14.746 -21.975  13.263  0.00  0.00    +0.176 C 
BRANCH   6   7
ATOM      7  C   GLY A   5      15.053 -20.795  12.352  0.00  0.00    +0.243 C 
ATOM      8  O   GLY A   5      15.852 -19.936  12.706  0.00  0.00    -0.273 OA
ATOM      9  N   PHE A   6      14.419 -20.746  11.183  0.00  0.00    -0.297 N 
ATOM     10  H   PHE A   6      13.701 -21.466  10.966  0.00  0.00    +0.150 HD
BRANCH   9  11
ATOM     11  CA  PHE A   6      14.705 -19.706  10.196  0.00  0.00    +0.153 C 
BRANCH  11  12
ATOM     12  C   PHE A   6      13.554 -18.707  10.051  0.00  0.00    +0.241 C 
ATOM     13  N   CYS A   7      12.522 -18.810  10.889  0.00  0.00    -0.297 N 
ATOM     14  H   CYS A   7      12.539 -19.515  11.653  0.00  0.00    +0.150 HD
ATOM     15  O   PHE A   6      13.587 -17.864   9.162  0.00  0.00    -0.273 OA
BRANCH  13  16
ATOM     16  CA  CYS A   7      11.366 -17.928  10.730  0.00  0.00    +0.149 C 
BRANCH  16  17
ATOM     17  C   CYS A   7      11.732 -16.445  10.983  0.00  0.00    +0.228 C 
ATOM     18  O   CYS A   7      12.814 -16.128  11.487  0.00  0.00    -0.286 OA
ENDBRANCH  16  17
BRANCH  16  19
ATOM     19  CB  CYS A   7      10.186 -18.367  11.609  0.00  0.00    +0.096 C 
ATOM     20  SG  CYS A   7      10.313 -17.960  13.400  0.00  0.00    -0.080 S 
ENDBRANCH  16  19
ENDBRANCH  13  16
ENDBRANCH  11  12
BRANCH  11  21
ATOM     21  CB  PHE A   6      14.959 -20.346   8.826  0.00  0.00    +0.055 C 
BRANCH  21  22
ATOM     22  CG  PHE A   6      16.228 -21.167   8.740  0.00  0.00    -0.020 A 
ATOM     23  CD2 PHE A   6      17.355 -20.829   9.468  0.00  0.00    -0.004 A 
ATOM     24  CE2 PHE A   6      18.531 -21.587   9.376  0.00  0.00    -0.000 A 
ATOM     25  CZ  PHE A   6      18.580 -22.692   8.539  0.00  0.00    -0.000 A 
ATOM     26  CE1 PHE A   6      17.452 -23.041   7.804  0.00  0.00    -0.000 A 
ATOM     27  CD1 PHE A   6      16.290 -22.277   7.906  0.00  0.00    -0.004 A 
ENDBRANCH  21  22
ENDBRANCH  11  21
ENDBRANCH   9  11
ENDBRANCH   6   7
ENDBRANCH   4   6
ENDBRANCH   1   2
BRANCH   1  29
ATOM     28  C   ASP A   3      11.338 -24.786  12.382  0.00  0.00    +0.241 C 
ATOM     29  N   PHE A   4      11.120 -23.928  13.374  0.00  0.00    -0.297 N 
ATOM     30  H   PHE A   4      11.045 -24.288  14.347  0.00  0.00    +0.150 HD
ATOM     31  O   ASP A   3      11.456 -24.445  11.204  0.00  0.00    -0.273 OA
BRANCH  28  32
ATOM     32  CA  ASP A   3      11.495 -26.248  12.795  0.00  0.00    +0.160 C 
BRANCH  32  34
ATOM     33  C   SER A   2       9.189 -26.952  12.274  0.00  0.00    +0.243 C 
ATOM     34  N   ASP A   3      10.244 -26.956  13.079  0.00  0.00    -0.296 N 
ATOM     35  H   ASP A   3      10.179 -27.495  13.966  0.00  0.00    +0.150 HD
ATOM     36  O   SER A   2       9.117 -26.279  11.257  0.00  0.00    -0.273 OA
BRANCH  33  37
ATOM     37  CA  SER A   2       8.032 -27.853  12.688  0.00  0.00    +0.178 C 
BRANCH  37  40
ATOM     38  C   LEU A   1       5.652 -27.589  12.221  0.00  0.00    +0.238 C 
ATOM     39  O   LEU A   1       5.385 -27.386  13.414  0.00  0.00    -0.274 OA
ATOM     40  N   SER A   2       6.900 -27.705  11.777  0.00  0.00    -0.295 N 
ATOM     41  H   SER A   2       7.075 -27.690  10.752  0.00  0.00    +0.150 HD
BRANCH  38  42
ATOM     42  CA  LEU A   1       4.535 -27.720  11.166  0.00  0.00    +0.145 C 
BRANCH  42  43
ATOM     43  N   LEU A   1       3.434 -28.508  11.707  0.00  0.00    -0.238 NA
ATOM     44  H   LEU A   1       2.564 -28.016  11.995  0.00  0.00    +0.142 HD
ENDBRANCH  42  43
BRANCH  42  45
ATOM     45  CB  LEU A   1       4.015 -26.340  10.731  0.00  0.00    +0.026 C 
BRANCH  45  46
ATOM     46  CG  LEU A   1       5.037 -25.372  10.149  0.00  0.00    +0.002 C 
ATOM     47  CD2 LEU A   1       4.396 -24.018   9.815  0.00  0.00    +0.000 C 
ATOM     48  CD1 LEU A   1       5.701 -26.007   8.919  0.00  0.00    +0.000 C 
ENDBRANCH  45  46
ENDBRANCH  42  45
ENDBRANCH  38  42
ENDBRANCH  37  40
BRANCH  37  49
ATOM     49  CB  SER A   2       8.489 -29.317  12.714  0.00  0.00    +0.166 C 
BRANCH  49  50
ATOM     50  OG  SER A   2       9.638 -29.506  13.520  0.00  0.00    -0.380 OA
ATOM     51  H   SER A   2       9.895 -30.462  13.507  0.00  0.00    +0.211 HD
ENDBRANCH  49  50
ENDBRANCH  37  49
ENDBRANCH  33  37
ENDBRANCH  32  34
BRANCH  32  52
ATOM     52  CB  ASP A   3      12.366 -26.993  11.780  0.00  0.00    +0.143 C 
BRANCH  52  53
ATOM     53  CG  ASP A   3      13.853 -26.660  11.950  0.00  0.00    +0.367 C 
ATOM     54  OD2 ASP A   3      14.175 -25.569  12.496  0.00  0.00    -0.246 OA
ATOM     55  OD1 ASP A   3      14.700 -27.486  11.553  0.00  0.00    -0.246 OA
ENDBRANCH  52  53
ENDBRANCH  32  52
ENDBRANCH  28  32
ENDBRANCH   1  29
BRANCH   1  56
ATOM     56  CB  PHE A   4       9.952 -21.929  14.108  0.00  0.00    +0.055 C 
BRANCH  56  57
ATOM     57  CG  PHE A   4       8.544 -22.345  13.789  0.00  0.00    -0.020 A 
ATOM     58  CD2 PHE A   4       8.109 -23.637  14.063  0.00  0.00    -0.004 A 
ATOM     59  CE2 PHE A   4       6.811 -24.036  13.754  0.00  0.00    -0.000 A 
ATOM     60  CZ  PHE A   4       5.937 -23.136  13.149  0.00  0.00    -0.000 A 
ATOM     61  CE1 PHE A   4       6.369 -21.856  12.849  0.00  0.00    -0.000 A 
ATOM     62  CD1 PHE A   4       7.675 -21.468  13.161  0.00  0.00    -0.004 A 
ENDBRANCH  56  57
ENDBRANCH   1  56
TORSDOF 25
REMARK  Name = ../refined-set-2016/4o0y/4o0y_pocket.pdb
REMARK  217 active torsions:
REMARK  status: ('A' for Active; 'I' for Inactive)
REMARK    1  A    between atoms: _1  and  _3
REMARK    2  A    between atoms: _3  and  _4
REMARK    3  A    between atoms: _3  and  _6
REMARK    4  A    between atoms: _6  and  _7
REMARK    5  A    between atoms: _7  and  _8
REMARK    6  A    between atoms: _8  and  _9
REMARK    7  A    between atoms: _9  and  _10
REMARK    8  A    between atoms: _14  and  _16
REMARK    9  A    between atoms: _16  and  _17
REMARK   10  A    between atoms: _16  and  _19
REMARK   11  A    between atoms: _19  and  _20
REMARK   12  A    between atoms: _23  and  _25
REMARK   13  A    between atoms: _25  and  _26
REMARK   14  A    between atoms: _28  and  _30
REMARK   15  A    between atoms: _30  and  _31
REMARK   16  A    between atoms: _30  and  _33
REMARK   17  A    between atoms: _33  and  _34
REMARK   18  A    between atoms: _34  and  _35
REMARK   19  A    between atoms: _38  and  _40
REMARK   20  A    between atoms: _40  and  _41
REMARK   21  A    between atoms: _43  and  _45
REMARK   22  A    between atoms: _45  and  _46
REMARK   23  A    between atoms: _45  and  _48
REMARK   24  A    between atoms: _48  and  _49
REMARK   25  A    between atoms: _51  and  _53
REMARK   26  A    between atoms: _53  and  _54
REMARK   27  A    between atoms: _53  and  _56
REMARK   28  A    between atoms: _56  and  _57
REMARK   29  A    between atoms: _60  and  _62
REMARK   30  A    between atoms: _62  and  _63
REMARK   31  A    between atoms: _65  and  _67
REMARK   32  A    between atoms: _67  and  _68
REMARK   33  A    between atoms: _67  and  _70
REMARK   34  A    between atoms: _70  and  _71
REMARK   35  A    between atoms: _74  and  _76
REMARK   36  A    between atoms: _76  and  _77
REMARK   37  A    between atoms: _76  and  _79
REMARK   38  A    between atoms: _82  and  _84
REMARK   39  A    between atoms: _84  and  _85
REMARK   40  A    between atoms: _84  and  _87
REMARK   41  A    between atoms: _89  and  _91
REMARK   42  A    between atoms: _91  and  _92
REMARK   43  A    between atoms: _91  and  _94
REMARK   44  A    between atoms: _94  and  _95
REMARK   45  A    between atoms: _98  and  _100
REMARK   46  A    between atoms: _100  and  _101
REMARK   47  A    between atoms: _100  and  _103
REMARK   48  A    between atoms: _106  and  _108
REMARK   49  A    between atoms: _108  and  _109
REMARK   50  A    between atoms: _112  and  _114
REMARK   51  A    between atoms: _114  and  _115
REMARK   52  A    between atoms: _114  and  _117
REMARK   53  A    between atoms: _120  and  _122
REMARK   54  A    between atoms: _122  and  _123
REMARK   55  A    between atoms: _122  and  _125
REMARK   56  A    between atoms: _125  and  _126
REMARK   57  A    between atoms: _126  and  _127
REMARK   58  A    between atoms: _127  and  _128
REMARK   59  A    between atoms: _128  and  _129
REMARK   60  A    between atoms: _133  and  _135
REMARK   61  A    between atoms: _135  and  _136
REMARK   62  A    between atoms: _135  and  _138
REMARK   63  A    between atoms: _138  and  _139
REMARK   64  A    between atoms: _139  and  _140
REMARK   65  A    between atoms: _140  and  _141
REMARK   66  A    between atoms: _141  and  _142
REMARK   67  A    between atoms: _146  and  _148
REMARK   68  A    between atoms: _148  and  _149
REMARK   69  A    between atoms: _148  and  _151
REMARK   70  A    between atoms: _151  and  _152
REMARK   71  A    between atoms: _152  and  _153
REMARK   72  A    between atoms: _155  and  _157
REMARK   73  A    between atoms: _157  and  _158
REMARK   74  A    between atoms: _157  and  _160
REMARK   75  A    between atoms: _160  and  _161
REMARK   76  A    between atoms: _166  and  _168
REMARK   77  A    between atoms: _168  and  _169
REMARK   78  A    between atoms: _168  and  _171
REMARK   79  A    between atoms: _171  and  _172
REMARK   80  A    between atoms: _172  and  _173
REMARK   81  A    between atoms: _176  and  _178
REMARK   82  A    between atoms: _178  and  _179
REMARK   83  A    between atoms: _178  and  _181
REMARK   84  A    between atoms: _184  and  _186
REMARK   85  A    between atoms: _186  and  _187
REMARK   86  A    between atoms: _186  and  _189
REMARK   87  A    between atoms: _189  and  _190
REMARK   88  A    between atoms: _190  and  _191
REMARK   89  A    between atoms: _193  and  _195
REMARK   90  A    between atoms: _195  and  _196
REMARK   91  A    between atoms: _195  and  _198
REMARK   92  A    between atoms: _201  and  _203
REMARK   93  A    between atoms: _203  and  _204
REMARK   94  A    between atoms: _203  and  _206
REMARK   95  A    between atoms: _209  and  _211
REMARK   96  A    between atoms: _211  and  _212
REMARK   97  A    between atoms: _211  and  _214
REMARK   98  A    between atoms: _214  and  _215
REMARK   99  A    between atoms: _215  and  _216
REMARK  100  A    between atoms: _219  and  _221
REMARK  101  A    between atoms: _221  and  _222
REMARK  102  A    between atoms: _221  and  _224
REMARK  103  A    between atoms: _224  and  _225
REMARK  104  A    between atoms: _225  and  _226
REMARK  105  A    between atoms: _228  and  _230
REMARK  106  A    between atoms: _230  and  _231
REMARK  107  A    between atoms: _230  and  _233
REMARK  108  A    between atoms: _233  and  _234
REMARK  109  A    between atoms: _239  and  _240
REMARK  110  A    between atoms: _242  and  _244
REMARK  111  A    between atoms: _244  and  _245
REMARK  112  A    between atoms: _244  and  _247
REMARK  113  A    between atoms: _247  and  _248
REMARK  114  A    between atoms: _253  and  _255
REMARK  115  A    between atoms: _255  and  _256
REMARK  116  A    between atoms: _255  and  _258
REMARK  117  A    between atoms: _258  and  _259
REMARK  118  A    between atoms: _269  and  _271
REMARK  119  A    between atoms: _271  and  _272
REMARK  120  A    between atoms: _271  and  _274
REMARK  121  A    between atoms: _277  and  _279
REMARK  122  A    between atoms: _279  and  _280
REMARK  123  A    between atoms: _279  and  _282
REMARK  124  A    between atoms: _285  and  _287
REMARK  125  A    between atoms: _287  and  _288
REMARK  126  A    between atoms: _287  and  _290
REMARK  127  A    between atoms: _290  and  _291
REMARK  128  A    between atoms: _291  and  _292
REMARK  129  A    between atoms: _294  and  _296
REMARK  130  A    between atoms: _296  and  _297
REMARK  131  A    between atoms: _296  and  _299
REMARK  132  A    between atoms: _299  and  _300
REMARK  133  A    between atoms: _300  and  _301
REMARK  134  A    between atoms: _304  and  _306
REMARK  135  A    between atoms: _306  and  _307
REMARK  136  A    between atoms: _306  and  _309
REMARK  137  A    between atoms: _309  and  _310
REMARK  138  A    between atoms: _316  and  _318
REMARK  139  A    between atoms: _318  and  _319
REMARK  140  A    between atoms: _318  and  _321
REMARK  141  A    between atoms: _321  and  _322
REMARK  142  A    between atoms: _325  and  _327
REMARK  143  A    between atoms: _327  and  _328
REMARK  144  A    between atoms: _327  and  _330
REMARK  145  A    between atoms: _330  and  _331
REMARK  146  A    between atoms: _331  and  _332
REMARK  147  A    between atoms: _335  and  _337
REMARK  148  A    between atoms: _337  and  _338
REMARK  149  A    between atoms: _340  and  _342
REMARK  150  A    between atoms: _342  and  _343
REMARK  151  A    between atoms: _345  and  _347
REMARK  152  A    between atoms: _347  and  _348
REMARK  153  A    between atoms: _351  and  _353
REMARK  154  A    between atoms: _353  and  _354
REMARK  155  A    between atoms: _353  and  _356
REMARK  156  A    between atoms: _356  and  _357
REMARK  157  A    between atoms: _360  and  _362
REMARK  158  A    between atoms: _362  and  _363
REMARK  159  A    between atoms: _362  and  _365
REMARK  160  A    between atoms: _365  and  _366
REMARK  161  A    between atoms: _369  and  _371
REMARK  162  A    between atoms: _371  and  _372
REMARK  163  A    between atoms: _371  and  _374
REMARK  164  A    between atoms: _374  and  _375
REMARK  165  A    between atoms: _378  and  _380
REMARK  166  A    between atoms: _380  and  _381
REMARK  167  A    between atoms: _380  and  _383
REMARK  168  A    between atoms: _383  and  _384
REMARK  169  A    between atoms: _389  and  _391
REMARK  170  A    between atoms: _391  and  _392
REMARK  171  A    between atoms: _391  and  _394
REMARK  172  A    between atoms: _394  and  _395
REMARK  173  A    between atoms: _397  and  _399
REMARK  174  A    between atoms: _399  and  _400
REMARK  175  A    between atoms: _399  and  _402
REMARK  176  A    between atoms: _402  and  _403
REMARK  177  A    between atoms: _406  and  _408
REMARK  178  A    between atoms: _408  and  _409
REMARK  179  A    between atoms: _408  and  _411
REMARK  180  A    between atoms: _411  and  _412
REMARK  181  A    between atoms: _414  and  _416
REMARK  182  A    between atoms: _416  and  _417
REMARK  183  A    between atoms: _416  and  _419
REMARK  184  A    between atoms: _419  and  _420
REMARK  185  A    between atoms: _423  and  _425
REMARK  186  A    between atoms: _425  and  _426
REMARK  187  A    between atoms: _425  and  _428
REMARK  188  A    between atoms: _428  and  _429
REMARK  189  A    between atoms: _432  and  _434
REMARK  190  A    between atoms: _434  and  _435
REMARK  191  A    between atoms: _434  and  _437
REMARK  192  A    between atoms: _437  and  _438
REMARK  193  A    between atoms: _441  and  _443
REMARK  194  A    between atoms: _443  and  _444
REMARK  195  A    between atoms: _443  and  _446
REMARK  196  A    between atoms: _446  and  _447
REMARK  197  A    between atoms: _450  and  _452
REMARK  198  A    between atoms: _452  and  _453
REMARK  199  A    between atoms: _452  and  _455
REMARK  200  A    between atoms: _455  and  _456
REMARK  201  A    between atoms: _458  and  _460
REMARK  202  A    between atoms: _460  and  _461
REMARK  203  A    between atoms: _460  and  _463
REMARK  204  A    between atoms: _463  and  _464
REMARK  205  A    between atoms: _467  and  _469
REMARK  206  A    between atoms: _469  and  _470
REMARK  207  A    between atoms: _469  and  _472
REMARK  208  A    between atoms: _472  and  _473
REMARK  209  A    between atoms: _479  and  _481
REMARK  210  A    between atoms: _481  and  _482
REMARK  211  A    between atoms: _484  and  _486
REMARK  212  A    between atoms: _486  and  _487
REMARK  213  A    between atoms: _486  and  _489
REMARK  214  A    between atoms: _489  and  _490
REMARK  215  A    between atoms: _496  and  _498
REMARK  216  A    between atoms: _498  and  _499
REMARK  217  A    between atoms: _498  and  _501
REMARK                            x       y       z     vdW  Elec       q    Type
REMARK                         _______ _______ _______ _____ _____    ______ ____
ROOT
ATOM      1  O   HOH     1      12.121 -21.788   9.905  0.00  0.00    +0.000 OA
ENDROOT
TORSDOF 0
REMARK  Name = ../refined-set-2016/4o0y/4o0y_pocket.pdb
REMARK  217 active torsions:
REMARK  status: ('A' for Active; 'I' for Inactive)
REMARK    1  A    between atoms: _1  and  _3
REMARK    2  A    between atoms: _3  and  _4
REMARK    3  A    between atoms: _3  and  _6
REMARK    4  A    between atoms: _6  and  _7
REMARK    5  A    between atoms: _7  and  _8
REMARK    6  A    between atoms: _8  and  _9
REMARK    7  A    between atoms: _9  and  _10
REMARK    8  A    between atoms: _14  and  _16
REMARK    9  A    between atoms: _16  and  _17
REMARK   10  A    between atoms: _16  and  _19
REMARK   11  A    between atoms: _19  and  _20
REMARK   12  A    between atoms: _23  and  _25
REMARK   13  A    between atoms: _25  and  _26
REMARK   14  A    between atoms: _28  and  _30
REMARK   15  A    between atoms: _30  and  _31
REMARK   16  A    between atoms: _30  and  _33
REMARK   17  A    between atoms: _33  and  _34
REMARK   18  A    between atoms: _34  and  _35
REMARK   19  A    between atoms: _38  and  _40
REMARK   20  A    between atoms: _40  and  _41
REMARK   21  A    between atoms: _43  and  _45
REMARK   22  A    between atoms: _45  and  _46
REMARK   23  A    between atoms: _45  and  _48
REMARK   24  A    between atoms: _48  and  _49
REMARK   25  A    between atoms: _51  and  _53
REMARK   26  A    between atoms: _53  and  _54
REMARK   27  A    between atoms: _53  and  _56
REMARK   28  A    between atoms: _56  and  _57
REMARK   29  A    between atoms: _60  and  _62
REMARK   30  A    between atoms: _62  and  _63
REMARK   31  A    between atoms: _65  and  _67
REMARK   32  A    between atoms: _67  and  _68
REMARK   33  A    between atoms: _67  and  _70
REMARK   34  A    between atoms: _70  and  _71
REMARK   35  A    between atoms: _74  and  _76
REMARK   36  A    between atoms: _76  and  _77
REMARK   37  A    between atoms: _76  and  _79
REMARK   38  A    between atoms: _82  and  _84
REMARK   39  A    between atoms: _84  and  _85
REMARK   40  A    between atoms: _84  and  _87
REMARK   41  A    between atoms: _89  and  _91
REMARK   42  A    between atoms: _91  and  _92
REMARK   43  A    between atoms: _91  and  _94
REMARK   44  A    between atoms: _94  and  _95
REMARK   45  A    between atoms: _98  and  _100
REMARK   46  A    between atoms: _100  and  _101
REMARK   47  A    between atoms: _100  and  _103
REMARK   48  A    between atoms: _106  and  _108
REMARK   49  A    between atoms: _108  and  _109
REMARK   50  A    between atoms: _112  and  _114
REMARK   51  A    between atoms: _114  and  _115
REMARK   52  A    between atoms: _114  and  _117
REMARK   53  A    between atoms: _120  and  _122
REMARK   54  A    between atoms: _122  and  _123
REMARK   55  A    between atoms: _122  and  _125
REMARK   56  A    between atoms: _125  and  _126
REMARK   57  A    between atoms: _126  and  _127
REMARK   58  A    between atoms: _127  and  _128
REMARK   59  A    between atoms: _128  and  _129
REMARK   60  A    between atoms: _133  and  _135
REMARK   61  A    between atoms: _135  and  _136
REMARK   62  A    between atoms: _135  and  _138
REMARK   63  A    between atoms: _138  and  _139
REMARK   64  A    between atoms: _139  and  _140
REMARK   65  A    between atoms: _140  and  _141
REMARK   66  A    between atoms: _141  and  _142
REMARK   67  A    between atoms: _146  and  _148
REMARK   68  A    between atoms: _148  and  _149
REMARK   69  A    between atoms: _148  and  _151
REMARK   70  A    between atoms: _151  and  _152
REMARK   71  A    between atoms: _152  and  _153
REMARK   72  A    between atoms: _155  and  _157
REMARK   73  A    between atoms: _157  and  _158
REMARK   74  A    between atoms: _157  and  _160
REMARK   75  A    between atoms: _160  and  _161
REMARK   76  A    between atoms: _166  and  _168
REMARK   77  A    between atoms: _168  and  _169
REMARK   78  A    between atoms: _168  and  _171
REMARK   79  A    between atoms: _171  and  _172
REMARK   80  A    between atoms: _172  and  _173
REMARK   81  A    between atoms: _176  and  _178
REMARK   82  A    between atoms: _178  and  _179
REMARK   83  A    between atoms: _178  and  _181
REMARK   84  A    between atoms: _184  and  _186
REMARK   85  A    between atoms: _186  and  _187
REMARK   86  A    between atoms: _186  and  _189
REMARK   87  A    between atoms: _189  and  _190
REMARK   88  A    between atoms: _190  and  _191
REMARK   89  A    between atoms: _193  and  _195
REMARK   90  A    between atoms: _195  and  _196
REMARK   91  A    between atoms: _195  and  _198
REMARK   92  A    between atoms: _201  and  _203
REMARK   93  A    between atoms: _203  and  _204
REMARK   94  A    between atoms: _203  and  _206
REMARK   95  A    between atoms: _209  and  _211
REMARK   96  A    between atoms: _211  and  _212
REMARK   97  A    between atoms: _211  and  _214
REMARK   98  A    between atoms: _214  and  _215
REMARK   99  A    between atoms: _215  and  _216
REMARK  100  A    between atoms: _219  and  _221
REMARK  101  A    between atoms: _221  and  _222
REMARK  102  A    between atoms: _221  and  _224
REMARK  103  A    between atoms: _224  and  _225
REMARK  104  A    between atoms: _225  and  _226
REMARK  105  A    between atoms: _228  and  _230
REMARK  106  A    between atoms: _230  and  _231
REMARK  107  A    between atoms: _230  and  _233
REMARK  108  A    between atoms: _233  and  _234
REMARK  109  A    between atoms: _239  and  _240
REMARK  110  A    between atoms: _242  and  _244
REMARK  111  A    between atoms: _244  and  _245
REMARK  112  A    between atoms: _244  and  _247
REMARK  113  A    between atoms: _247  and  _248
REMARK  114  A    between atoms: _253  and  _255
REMARK  115  A    between atoms: _255  and  _256
REMARK  116  A    between atoms: _255  and  _258
REMARK  117  A    between atoms: _258  and  _259
REMARK  118  A    between atoms: _269  and  _271
REMARK  119  A    between atoms: _271  and  _272
REMARK  120  A    between atoms: _271  and  _274
REMARK  121  A    between atoms: _277  and  _279
REMARK  122  A    between atoms: _279  and  _280
REMARK  123  A    between atoms: _279  and  _282
REMARK  124  A    between atoms: _285  and  _287
REMARK  125  A    between atoms: _287  and  _288
REMARK  126  A    between atoms: _287  and  _290
REMARK  127  A    between atoms: _290  and  _291
REMARK  128  A    between atoms: _291  and  _292
REMARK  129  A    between atoms: _294  and  _296
REMARK  130  A    between atoms: _296  and  _297
REMARK  131  A    between atoms: _296  and  _299
REMARK  132  A    between atoms: _299  and  _300
REMARK  133  A    between atoms: _300  and  _301
REMARK  134  A    between atoms: _304  and  _306
REMARK  135  A    between atoms: _306  and  _307
REMARK  136  A    between atoms: _306  and  _309
REMARK  137  A    between atoms: _309  and  _310
REMARK  138  A    between atoms: _316  and  _318
REMARK  139  A    between atoms: _318  and  _319
REMARK  140  A    between atoms: _318  and  _321
REMARK  141  A    between atoms: _321  and  _322
REMARK  142  A    between atoms: _325  and  _327
REMARK  143  A    between atoms: _327  and  _328
REMARK  144  A    between atoms: _327  and  _330
REMARK  145  A    between atoms: _330  and  _331
REMARK  146  A    between atoms: _331  and  _332
REMARK  147  A    between atoms: _335  and  _337
REMARK  148  A    between atoms: _337  and  _338
REMARK  149  A    between atoms: _340  and  _342
REMARK  150  A    between atoms: _342  and  _343
REMARK  151  A    between atoms: _345  and  _347
REMARK  152  A    between atoms: _347  and  _348
REMARK  153  A    between atoms: _351  and  _353
REMARK  154  A    between atoms: _353  and  _354
REMARK  155  A    between atoms: _353  and  _356
REMARK  156  A    between atoms: _356  and  _357
REMARK  157  A    between atoms: _360  and  _362
REMARK  158  A    between atoms: _362  and  _363
REMARK  159  A    between atoms: _362  and  _365
REMARK  160  A    between atoms: _365  and  _366
REMARK  161  A    between atoms: _369  and  _371
REMARK  162  A    between atoms: _371  and  _372
REMARK  163  A    between atoms: _371  and  _374
REMARK  164  A    between atoms: _374  and  _375
REMARK  165  A    between atoms: _378  and  _380
REMARK  166  A    between atoms: _380  and  _381
REMARK  167  A    between atoms: _380  and  _383
REMARK  168  A    between atoms: _383  and  _384
REMARK  169  A    between atoms: _389  and  _391
REMARK  170  A    between atoms: _391  and  _392
REMARK  171  A    between atoms: _391  and  _394
REMARK  172  A    between atoms: _394  and  _395
REMARK  173  A    between atoms: _397  and  _399
REMARK  174  A    between atoms: _399  and  _400
REMARK  175  A    between atoms: _399  and  _402
REMARK  176  A    between atoms: _402  and  _403
REMARK  177  A    between atoms: _406  and  _408
REMARK  178  A    between atoms: _408  and  _409
REMARK  179  A    between atoms: _408  and  _411
REMARK  180  A    between atoms: _411  and  _412
REMARK  181  A    between atoms: _414  and  _416
REMARK  182  A    between atoms: _416  and  _417
REMARK  183  A    between atoms: _416  and  _419
REMARK  184  A    between atoms: _419  and  _420
REMARK  185  A    between atoms: _423  and  _425
REMARK  186  A    between atoms: _425  and  _426
REMARK  187  A    between atoms: _425  and  _428
REMARK  188  A    between atoms: _428  and  _429
REMARK  189  A    between atoms: _432  and  _434
REMARK  190  A    between atoms: _434  and  _435
REMARK  191  A    between atoms: _434  and  _437
REMARK  192  A    between atoms: _437  and  _438
REMARK  193  A    between atoms: _441  and  _443
REMARK  194  A    between atoms: _443  and  _444
REMARK  195  A    between atoms: _443  and  _446
REMARK  196  A    between atoms: _446  and  _447
REMARK  197  A    between atoms: _450  and  _452
REMARK  198  A    between atoms: _452  and  _453
REMARK  199  A    between atoms: _452  and  _455
REMARK  200  A    between atoms: _455  and  _456
REMARK  201  A    between atoms: _458  and  _460
REMARK  202  A    between atoms: _460  and  _461
REMARK  203  A    between atoms: _460  and  _463
REMARK  204  A    between atoms: _463  and  _464
REMARK  205  A    between atoms: _467  and  _469
REMARK  206  A    between atoms: _469  and  _470
REMARK  207  A    between atoms: _469  and  _472
REMARK  208  A    between atoms: _472  and  _473
REMARK  209  A    between atoms: _479  and  _481
REMARK  210  A    between atoms: _481  and  _482
REMARK  211  A    between atoms: _484  and  _486
REMARK  212  A    between atoms: _486  and  _487
REMARK  213  A    between atoms: _486  and  _489
REMARK  214  A    between atoms: _489  and  _490
REMARK  215  A    between atoms: _496  and  _498
REMARK  216  A    between atoms: _498  and  _499
REMARK  217  A    between atoms: _498  and  _501
REMARK                            x       y       z     vdW  Elec       q    Type
REMARK                         _______ _______ _______ _____ _____    ______ ____
ROOT
ATOM      1  O   HOH     1      13.148 -28.102   8.140  0.00  0.00    +0.000 OA
ENDROOT
TORSDOF 0
REMARK  Name = ../refined-set-2016/4o0y/4o0y_pocket.pdb
REMARK  217 active torsions:
REMARK  status: ('A' for Active; 'I' for Inactive)
REMARK    1  A    between atoms: _1  and  _3
REMARK    2  A    between atoms: _3  and  _4
REMARK    3  A    between atoms: _3  and  _6
REMARK    4  A    between atoms: _6  and  _7
REMARK    5  A    between atoms: _7  and  _8
REMARK    6  A    between atoms: _8  and  _9
REMARK    7  A    between atoms: _9  and  _10
REMARK    8  A    between atoms: _14  and  _16
REMARK    9  A    between atoms: _16  and  _17
REMARK   10  A    between atoms: _16  and  _19
REMARK   11  A    between atoms: _19  and  _20
REMARK   12  A    between atoms: _23  and  _25
REMARK   13  A    between atoms: _25  and  _26
REMARK   14  A    between atoms: _28  and  _30
REMARK   15  A    between atoms: _30  and  _31
REMARK   16  A    between atoms: _30  and  _33
REMARK   17  A    between atoms: _33  and  _34
REMARK   18  A    between atoms: _34  and  _35
REMARK   19  A    between atoms: _38  and  _40
REMARK   20  A    between atoms: _40  and  _41
REMARK   21  A    between atoms: _43  and  _45
REMARK   22  A    between atoms: _45  and  _46
REMARK   23  A    between atoms: _45  and  _48
REMARK   24  A    between atoms: _48  and  _49
REMARK   25  A    between atoms: _51  and  _53
REMARK   26  A    between atoms: _53  and  _54
REMARK   27  A    between atoms: _53  and  _56
REMARK   28  A    between atoms: _56  and  _57
REMARK   29  A    between atoms: _60  and  _62
REMARK   30  A    between atoms: _62  and  _63
REMARK   31  A    between atoms: _65  and  _67
REMARK   32  A    between atoms: _67  and  _68
REMARK   33  A    between atoms: _67  and  _70
REMARK   34  A    between atoms: _70  and  _71
REMARK   35  A    between atoms: _74  and  _76
REMARK   36  A    between atoms: _76  and  _77
REMARK   37  A    between atoms: _76  and  _79
REMARK   38  A    between atoms: _82  and  _84
REMARK   39  A    between atoms: _84  and  _85
REMARK   40  A    between atoms: _84  and  _87
REMARK   41  A    between atoms: _89  and  _91
REMARK   42  A    between atoms: _91  and  _92
REMARK   43  A    between atoms: _91  and  _94
REMARK   44  A    between atoms: _94  and  _95
REMARK   45  A    between atoms: _98  and  _100
REMARK   46  A    between atoms: _100  and  _101
REMARK   47  A    between atoms: _100  and  _103
REMARK   48  A    between atoms: _106  and  _108
REMARK   49  A    between atoms: _108  and  _109
REMARK   50  A    between atoms: _112  and  _114
REMARK   51  A    between atoms: _114  and  _115
REMARK   52  A    between atoms: _114  and  _117
REMARK   53  A    between atoms: _120  and  _122
REMARK   54  A    between atoms: _122  and  _123
REMARK   55  A    between atoms: _122  and  _125
REMARK   56  A    between atoms: _125  and  _126
REMARK   57  A    between atoms: _126  and  _127
REMARK   58  A    between atoms: _127  and  _128
REMARK   59  A    between atoms: _128  and  _129
REMARK   60  A    between atoms: _133  and  _135
REMARK   61  A    between atoms: _135  and  _136
REMARK   62  A    between atoms: _135  and  _138
REMARK   63  A    between atoms: _138  and  _139
REMARK   64  A    between atoms: _139  and  _140
REMARK   65  A    between atoms: _140  and  _141
REMARK   66  A    between atoms: _141  and  _142
REMARK   67  A    between atoms: _146  and  _148
REMARK   68  A    between atoms: _148  and  _149
REMARK   69  A    between atoms: _148  and  _151
REMARK   70  A    between atoms: _151  and  _152
REMARK   71  A    between atoms: _152  and  _153
REMARK   72  A    between atoms: _155  and  _157
REMARK   73  A    between atoms: _157  and  _158
REMARK   74  A    between atoms: _157  and  _160
REMARK   75  A    between atoms: _160  and  _161
REMARK   76  A    between atoms: _166  and  _168
REMARK   77  A    between atoms: _168  and  _169
REMARK   78  A    between atoms: _168  and  _171
REMARK   79  A    between atoms: _171  and  _172
REMARK   80  A    between atoms: _172  and  _173
REMARK   81  A    between atoms: _176  and  _178
REMARK   82  A    between atoms: _178  and  _179
REMARK   83  A    between atoms: _178  and  _181
REMARK   84  A    between atoms: _184  and  _186
REMARK   85  A    between atoms: _186  and  _187
REMARK   86  A    between atoms: _186  and  _189
REMARK   87  A    between atoms: _189  and  _190
REMARK   88  A    between atoms: _190  and  _191
REMARK   89  A    between atoms: _193  and  _195
REMARK   90  A    between atoms: _195  and  _196
REMARK   91  A    between atoms: _195  and  _198
REMARK   92  A    between atoms: _201  and  _203
REMARK   93  A    between atoms: _203  and  _204
REMARK   94  A    between atoms: _203  and  _206
REMARK   95  A    between atoms: _209  and  _211
REMARK   96  A    between atoms: _211  and  _212
REMARK   97  A    between atoms: _211  and  _214
REMARK   98  A    between atoms: _214  and  _215
REMARK   99  A    between atoms: _215  and  _216
REMARK  100  A    between atoms: _219  and  _221
REMARK  101  A    between atoms: _221  and  _222
REMARK  102  A    between atoms: _221  and  _224
REMARK  103  A    between atoms: _224  and  _225
REMARK  104  A    between atoms: _225  and  _226
REMARK  105  A    between atoms: _228  and  _230
REMARK  106  A    between atoms: _230  and  _231
REMARK  107  A    between atoms: _230  and  _233
REMARK  108  A    between atoms: _233  and  _234
REMARK  109  A    between atoms: _239  and  _240
REMARK  110  A    between atoms: _242  and  _244
REMARK  111  A    between atoms: _244  and  _245
REMARK  112  A    between atoms: _244  and  _247
REMARK  113  A    between atoms: _247  and  _248
REMARK  114  A    between atoms: _253  and  _255
REMARK  115  A    between atoms: _255  and  _256
REMARK  116  A    between atoms: _255  and  _258
REMARK  117  A    between atoms: _258  and  _259
REMARK  118  A    between atoms: _269  and  _271
REMARK  119  A    between atoms: _271  and  _272
REMARK  120  A    between atoms: _271  and  _274
REMARK  121  A    between atoms: _277  and  _279
REMARK  122  A    between atoms: _279  and  _280
REMARK  123  A    between atoms: _279  and  _282
REMARK  124  A    between atoms: _285  and  _287
REMARK  125  A    between atoms: _287  and  _288
REMARK  126  A    between atoms: _287  and  _290
REMARK  127  A    between atoms: _290  and  _291
REMARK  128  A    between atoms: _291  and  _292
REMARK  129  A    between atoms: _294  and  _296
REMARK  130  A    between atoms: _296  and  _297
REMARK  131  A    between atoms: _296  and  _299
REMARK  132  A    between atoms: _299  and  _300
REMARK  133  A    between atoms: _300  and  _301
REMARK  134  A    between atoms: _304  and  _306
REMARK  135  A    between atoms: _306  and  _307
REMARK  136  A    between atoms: _306  and  _309
REMARK  137  A    between atoms: _309  and  _310
REMARK  138  A    between atoms: _316  and  _318
REMARK  139  A    between atoms: _318  and  _319
REMARK  140  A    between atoms: _318  and  _321
REMARK  141  A    between atoms: _321  and  _322
REMARK  142  A    between atoms: _325  and  _327
REMARK  143  A    between atoms: _327  and  _328
REMARK  144  A    between atoms: _327  and  _330
REMARK  145  A    between atoms: _330  and  _331
REMARK  146  A    between atoms: _331  and  _332
REMARK  147  A    between atoms: _335  and  _337
REMARK  148  A    between atoms: _337  and  _338
REMARK  149  A    between atoms: _340  and  _342
REMARK  150  A    between atoms: _342  and  _343
REMARK  151  A    between atoms: _345  and  _347
REMARK  152  A    between atoms: _347  and  _348
REMARK  153  A    between atoms: _351  and  _353
REMARK  154  A    between atoms: _353  and  _354
REMARK  155  A    between atoms: _353  and  _356
REMARK  156  A    between atoms: _356  and  _357
REMARK  157  A    between atoms: _360  and  _362
REMARK  158  A    between atoms: _362  and  _363
REMARK  159  A    between atoms: _362  and  _365
REMARK  160  A    between atoms: _365  and  _366
REMARK  161  A    between atoms: _369  and  _371
REMARK  162  A    between atoms: _371  and  _372
REMARK  163  A    between atoms: _371  and  _374
REMARK  164  A    between atoms: _374  and  _375
REMARK  165  A    between atoms: _378  and  _380
REMARK  166  A    between atoms: _380  and  _381
REMARK  167  A    between atoms: _380  and  _383
REMARK  168  A    between atoms: _383  and  _384
REMARK  169  A    between atoms: _389  and  _391
REMARK  170  A    between atoms: _391  and  _392
REMARK  171  A    between atoms: _391  and  _394
REMARK  172  A    between atoms: _394  and  _395
REMARK  173  A    between atoms: _397  and  _399
REMARK  174  A    between atoms: _399  and  _400
REMARK  175  A    between atoms: _399  and  _402
REMARK  176  A    between atoms: _402  and  _403
REMARK  177  A    between atoms: _406  and  _408
REMARK  178  A    between atoms: _408  and  _409
REMARK  179  A    between atoms: _408  and  _411
REMARK  180  A    between atoms: _411  and  _412
REMARK  181  A    between atoms: _414  and  _416
REMARK  182  A    between atoms: _416  and  _417
REMARK  183  A    between atoms: _416  and  _419
REMARK  184  A    between atoms: _419  and  _420
REMARK  185  A    between atoms: _423  and  _425
REMARK  186  A    between atoms: _425  and  _426
REMARK  187  A    between atoms: _425  and  _428
REMARK  188  A    between atoms: _428  and  _429
REMARK  189  A    between atoms: _432  and  _434
REMARK  190  A    between atoms: _434  and  _435
REMARK  191  A    between atoms: _434  and  _437
REMARK  192  A    between atoms: _437  and  _438
REMARK  193  A    between atoms: _441  and  _443
REMARK  194  A    between atoms: _443  and  _444
REMARK  195  A    between atoms: _443  and  _446
REMARK  196  A    between atoms: _446  and  _447
REMARK  197  A    between atoms: _450  and  _452
REMARK  198  A    between atoms: _452  and  _453
REMARK  199  A    between atoms: _452  and  _455
REMARK  200  A    between atoms: _455  and  _456
REMARK  201  A    between atoms: _458  and  _460
REMARK  202  A    between atoms: _460  and  _461
REMARK  203  A    between atoms: _460  and  _463
REMARK  204  A    between atoms: _463  and  _464
REMARK  205  A    between atoms: _467  and  _469
REMARK  206  A    between atoms: _469  and  _470
REMARK  207  A    between atoms: _469  and  _472
REMARK  208  A    between atoms: _472  and  _473
REMARK  209  A    between atoms: _479  and  _481
REMARK  210  A    between atoms: _481  and  _482
REMARK  211  A    between atoms: _484  and  _486
REMARK  212  A    between atoms: _486  and  _487
REMARK  213  A    between atoms: _486  and  _489
REMARK  214  A    between atoms: _489  and  _490
REMARK  215  A    between atoms: _496  and  _498
REMARK  216  A    between atoms: _498  and  _499
REMARK  217  A    between atoms: _498  and  _501
REMARK                            x       y       z     vdW  Elec       q    Type
REMARK                         _______ _______ _______ _____ _____    ______ ____
ROOT
ATOM      1  O   HOH     1      17.254 -21.132  15.371  0.00  0.00    +0.000 OA
ENDROOT
TORSDOF 0
REMARK  Name = ../refined-set-2016/4o0y/4o0y_pocket.pdb
REMARK  217 active torsions:
REMARK  status: ('A' for Active; 'I' for Inactive)
REMARK    1  A    between atoms: _1  and  _3
REMARK    2  A    between atoms: _3  and  _4
REMARK    3  A    between atoms: _3  and  _6
REMARK    4  A    between atoms: _6  and  _7
REMARK    5  A    between atoms: _7  and  _8
REMARK    6  A    between atoms: _8  and  _9
REMARK    7  A    between atoms: _9  and  _10
REMARK    8  A    between atoms: _14  and  _16
REMARK    9  A    between atoms: _16  and  _17
REMARK   10  A    between atoms: _16  and  _19
REMARK   11  A    between atoms: _19  and  _20
REMARK   12  A    between atoms: _23  and  _25
REMARK   13  A    between atoms: _25  and  _26
REMARK   14  A    between atoms: _28  and  _30
REMARK   15  A    between atoms: _30  and  _31
REMARK   16  A    between atoms: _30  and  _33
REMARK   17  A    between atoms: _33  and  _34
REMARK   18  A    between atoms: _34  and  _35
REMARK   19  A    between atoms: _38  and  _40
REMARK   20  A    between atoms: _40  and  _41
REMARK   21  A    between atoms: _43  and  _45
REMARK   22  A    between atoms: _45  and  _46
REMARK   23  A    between atoms: _45  and  _48
REMARK   24  A    between atoms: _48  and  _49
REMARK   25  A    between atoms: _51  and  _53
REMARK   26  A    between atoms: _53  and  _54
REMARK   27  A    between atoms: _53  and  _56
REMARK   28  A    between atoms: _56  and  _57
REMARK   29  A    between atoms: _60  and  _62
REMARK   30  A    between atoms: _62  and  _63
REMARK   31  A    between atoms: _65  and  _67
REMARK   32  A    between atoms: _67  and  _68
REMARK   33  A    between atoms: _67  and  _70
REMARK   34  A    between atoms: _70  and  _71
REMARK   35  A    between atoms: _74  and  _76
REMARK   36  A    between atoms: _76  and  _77
REMARK   37  A    between atoms: _76  and  _79
REMARK   38  A    between atoms: _82  and  _84
REMARK   39  A    between atoms: _84  and  _85
REMARK   40  A    between atoms: _84  and  _87
REMARK   41  A    between atoms: _89  and  _91
REMARK   42  A    between atoms: _91  and  _92
REMARK   43  A    between atoms: _91  and  _94
REMARK   44  A    between atoms: _94  and  _95
REMARK   45  A    between atoms: _98  and  _100
REMARK   46  A    between atoms: _100  and  _101
REMARK   47  A    between atoms: _100  and  _103
REMARK   48  A    between atoms: _106  and  _108
REMARK   49  A    between atoms: _108  and  _109
REMARK   50  A    between atoms: _112  and  _114
REMARK   51  A    between atoms: _114  and  _115
REMARK   52  A    between atoms: _114  and  _117
REMARK   53  A    between atoms: _120  and  _122
REMARK   54  A    between atoms: _122  and  _123
REMARK   55  A    between atoms: _122  and  _125
REMARK   56  A    between atoms: _125  and  _126
REMARK   57  A    between atoms: _126  and  _127
REMARK   58  A    between atoms: _127  and  _128
REMARK   59  A    between atoms: _128  and  _129
REMARK   60  A    between atoms: _133  and  _135
REMARK   61  A    between atoms: _135  and  _136
REMARK   62  A    between atoms: _135  and  _138
REMARK   63  A    between atoms: _138  and  _139
REMARK   64  A    between atoms: _139  and  _140
REMARK   65  A    between atoms: _140  and  _141
REMARK   66  A    between atoms: _141  and  _142
REMARK   67  A    between atoms: _146  and  _148
REMARK   68  A    between atoms: _148  and  _149
REMARK   69  A    between atoms: _148  and  _151
REMARK   70  A    between atoms: _151  and  _152
REMARK   71  A    between atoms: _152  and  _153
REMARK   72  A    between atoms: _155  and  _157
REMARK   73  A    between atoms: _157  and  _158
REMARK   74  A    between atoms: _157  and  _160
REMARK   75  A    between atoms: _160  and  _161
REMARK   76  A    between atoms: _166  and  _168
REMARK   77  A    between atoms: _168  and  _169
REMARK   78  A    between atoms: _168  and  _171
REMARK   79  A    between atoms: _171  and  _172
REMARK   80  A    between atoms: _172  and  _173
REMARK   81  A    between atoms: _176  and  _178
REMARK   82  A    between atoms: _178  and  _179
REMARK   83  A    between atoms: _178  and  _181
REMARK   84  A    between atoms: _184  and  _186
REMARK   85  A    between atoms: _186  and  _187
REMARK   86  A    between atoms: _186  and  _189
REMARK   87  A    between atoms: _189  and  _190
REMARK   88  A    between atoms: _190  and  _191
REMARK   89  A    between atoms: _193  and  _195
REMARK   90  A    between atoms: _195  and  _196
REMARK   91  A    between atoms: _195  and  _198
REMARK   92  A    between atoms: _201  and  _203
REMARK   93  A    between atoms: _203  and  _204
REMARK   94  A    between atoms: _203  and  _206
REMARK   95  A    between atoms: _209  and  _211
REMARK   96  A    between atoms: _211  and  _212
REMARK   97  A    between atoms: _211  and  _214
REMARK   98  A    between atoms: _214  and  _215
REMARK   99  A    between atoms: _215  and  _216
REMARK  100  A    between atoms: _219  and  _221
REMARK  101  A    between atoms: _221  and  _222
REMARK  102  A    between atoms: _221  and  _224
REMARK  103  A    between atoms: _224  and  _225
REMARK  104  A    between atoms: _225  and  _226
REMARK  105  A    between atoms: _228  and  _230
REMARK  106  A    between atoms: _230  and  _231
REMARK  107  A    between atoms: _230  and  _233
REMARK  108  A    between atoms: _233  and  _234
REMARK  109  A    between atoms: _239  and  _240
REMARK  110  A    between atoms: _242  and  _244
REMARK  111  A    between atoms: _244  and  _245
REMARK  112  A    between atoms: _244  and  _247
REMARK  113  A    between atoms: _247  and  _248
REMARK  114  A    between atoms: _253  and  _255
REMARK  115  A    between atoms: _255  and  _256
REMARK  116  A    between atoms: _255  and  _258
REMARK  117  A    between atoms: _258  and  _259
REMARK  118  A    between atoms: _269  and  _271
REMARK  119  A    between atoms: _271  and  _272
REMARK  120  A    between atoms: _271  and  _274
REMARK  121  A    between atoms: _277  and  _279
REMARK  122  A    between atoms: _279  and  _280
REMARK  123  A    between atoms: _279  and  _282
REMARK  124  A    between atoms: _285  and  _287
REMARK  125  A    between atoms: _287  and  _288
REMARK  126  A    between atoms: _287  and  _290
REMARK  127  A    between atoms: _290  and  _291
REMARK  128  A    between atoms: _291  and  _292
REMARK  129  A    between atoms: _294  and  _296
REMARK  130  A    between atoms: _296  and  _297
REMARK  131  A    between atoms: _296  and  _299
REMARK  132  A    between atoms: _299  and  _300
REMARK  133  A    between atoms: _300  and  _301
REMARK  134  A    between atoms: _304  and  _306
REMARK  135  A    between atoms: _306  and  _307
REMARK  136  A    between atoms: _306  and  _309
REMARK  137  A    between atoms: _309  and  _310
REMARK  138  A    between atoms: _316  and  _318
REMARK  139  A    between atoms: _318  and  _319
REMARK  140  A    between atoms: _318  and  _321
REMARK  141  A    between atoms: _321  and  _322
REMARK  142  A    between atoms: _325  and  _327
REMARK  143  A    between atoms: _327  and  _328
REMARK  144  A    between atoms: _327  and  _330
REMARK  145  A    between atoms: _330  and  _331
REMARK  146  A    between atoms: _331  and  _332
REMARK  147  A    between atoms: _335  and  _337
REMARK  148  A    between atoms: _337  and  _338
REMARK  149  A    between atoms: _340  and  _342
REMARK  150  A    between atoms: _342  and  _343
REMARK  151  A    between atoms: _345  and  _347
REMARK  152  A    between atoms: _347  and  _348
REMARK  153  A    between atoms: _351  and  _353
REMARK  154  A    between atoms: _353  and  _354
REMARK  155  A    between atoms: _353  and  _356
REMARK  156  A    between atoms: _356  and  _357
REMARK  157  A    between atoms: _360  and  _362
REMARK  158  A    between atoms: _362  and  _363
REMARK  159  A    between atoms: _362  and  _365
REMARK  160  A    between atoms: _365  and  _366
REMARK  161  A    between atoms: _369  and  _371
REMARK  162  A    between atoms: _371  and  _372
REMARK  163  A    between atoms: _371  and  _374
REMARK  164  A    between atoms: _374  and  _375
REMARK  165  A    between atoms: _378  and  _380
REMARK  166  A    between atoms: _380  and  _381
REMARK  167  A    between atoms: _380  and  _383
REMARK  168  A    between atoms: _383  and  _384
REMARK  169  A    between atoms: _389  and  _391
REMARK  170  A    between atoms: _391  and  _392
REMARK  171  A    between atoms: _391  and  _394
REMARK  172  A    between atoms: _394  and  _395
REMARK  173  A    between atoms: _397  and  _399
REMARK  174  A    between atoms: _399  and  _400
REMARK  175  A    between atoms: _399  and  _402
REMARK  176  A    between atoms: _402  and  _403
REMARK  177  A    between atoms: _406  and  _408
REMARK  178  A    between atoms: _408  and  _409
REMARK  179  A    between atoms: _408  and  _411
REMARK  180  A    between atoms: _411  and  _412
REMARK  181  A    between atoms: _414  and  _416
REMARK  182  A    between atoms: _416  and  _417
REMARK  183  A    between atoms: _416  and  _419
REMARK  184  A    between atoms: _419  and  _420
REMARK  185  A    between atoms: _423  and  _425
REMARK  186  A    between atoms: _425  and  _426
REMARK  187  A    between atoms: _425  and  _428
REMARK  188  A    between atoms: _428  and  _429
REMARK  189  A    between atoms: _432  and  _434
REMARK  190  A    between atoms: _434  and  _435
REMARK  191  A    between atoms: _434  and  _437
REMARK  192  A    between atoms: _437  and  _438
REMARK  193  A    between atoms: _441  and  _443
REMARK  194  A    between atoms: _443  and  _444
REMARK  195  A    between atoms: _443  and  _446
REMARK  196  A    between atoms: _446  and  _447
REMARK  197  A    between atoms: _450  and  _452
REMARK  198  A    between atoms: _452  and  _453
REMARK  199  A    between atoms: _452  and  _455
REMARK  200  A    between atoms: _455  and  _456
REMARK  201  A    between atoms: _458  and  _460
REMARK  202  A    between atoms: _460  and  _461
REMARK  203  A    between atoms: _460  and  _463
REMARK  204  A    between atoms: _463  and  _464
REMARK  205  A    between atoms: _467  and  _469
REMARK  206  A    between atoms: _469  and  _470
REMARK  207  A    between atoms: _469  and  _472
REMARK  208  A    between atoms: _472  and  _473
REMARK  209  A    between atoms: _479  and  _481
REMARK  210  A    between atoms: _481  and  _482
REMARK  211  A    between atoms: _484  and  _486
REMARK  212  A    between atoms: _486  and  _487
REMARK  213  A    between atoms: _486  and  _489
REMARK  214  A    between atoms: _489  and  _490
REMARK  215  A    between atoms: _496  and  _498
REMARK  216  A    between atoms: _498  and  _499
REMARK  217  A    between atoms: _498  and  _501
REMARK                            x       y       z     vdW  Elec       q    Type
REMARK                         _______ _______ _______ _____ _____    ______ ____
ROOT
ATOM      1  O   HOH     1      15.711 -20.517  17.708  0.00  0.00    +0.000 OA
ENDROOT
TORSDOF 0
REMARK  Name = ../refined-set-2016/4o0y/4o0y_pocket.pdb
REMARK  217 active torsions:
REMARK  status: ('A' for Active; 'I' for Inactive)
REMARK    1  A    between atoms: _1  and  _3
REMARK    2  A    between atoms: _3  and  _4
REMARK    3  A    between atoms: _3  and  _6
REMARK    4  A    between atoms: _6  and  _7
REMARK    5  A    between atoms: _7  and  _8
REMARK    6  A    between atoms: _8  and  _9
REMARK    7  A    between atoms: _9  and  _10
REMARK    8  A    between atoms: _14  and  _16
REMARK    9  A    between atoms: _16  and  _17
REMARK   10  A    between atoms: _16  and  _19
REMARK   11  A    between atoms: _19  and  _20
REMARK   12  A    between atoms: _23  and  _25
REMARK   13  A    between atoms: _25  and  _26
REMARK   14  A    between atoms: _28  and  _30
REMARK   15  A    between atoms: _30  and  _31
REMARK   16  A    between atoms: _30  and  _33
REMARK   17  A    between atoms: _33  and  _34
REMARK   18  A    between atoms: _34  and  _35
REMARK   19  A    between atoms: _38  and  _40
REMARK   20  A    between atoms: _40  and  _41
REMARK   21  A    between atoms: _43  and  _45
REMARK   22  A    between atoms: _45  and  _46
REMARK   23  A    between atoms: _45  and  _48
REMARK   24  A    between atoms: _48  and  _49
REMARK   25  A    between atoms: _51  and  _53
REMARK   26  A    between atoms: _53  and  _54
REMARK   27  A    between atoms: _53  and  _56
REMARK   28  A    between atoms: _56  and  _57
REMARK   29  A    between atoms: _60  and  _62
REMARK   30  A    between atoms: _62  and  _63
REMARK   31  A    between atoms: _65  and  _67
REMARK   32  A    between atoms: _67  and  _68
REMARK   33  A    between atoms: _67  and  _70
REMARK   34  A    between atoms: _70  and  _71
REMARK   35  A    between atoms: _74  and  _76
REMARK   36  A    between atoms: _76  and  _77
REMARK   37  A    between atoms: _76  and  _79
REMARK   38  A    between atoms: _82  and  _84
REMARK   39  A    between atoms: _84  and  _85
REMARK   40  A    between atoms: _84  and  _87
REMARK   41  A    between atoms: _89  and  _91
REMARK   42  A    between atoms: _91  and  _92
REMARK   43  A    between atoms: _91  and  _94
REMARK   44  A    between atoms: _94  and  _95
REMARK   45  A    between atoms: _98  and  _100
REMARK   46  A    between atoms: _100  and  _101
REMARK   47  A    between atoms: _100  and  _103
REMARK   48  A    between atoms: _106  and  _108
REMARK   49  A    between atoms: _108  and  _109
REMARK   50  A    between atoms: _112  and  _114
REMARK   51  A    between atoms: _114  and  _115
REMARK   52  A    between atoms: _114  and  _117
REMARK   53  A    between atoms: _120  and  _122
REMARK   54  A    between atoms: _122  and  _123
REMARK   55  A    between atoms: _122  and  _125
REMARK   56  A    between atoms: _125  and  _126
REMARK   57  A    between atoms: _126  and  _127
REMARK   58  A    between atoms: _127  and  _128
REMARK   59  A    between atoms: _128  and  _129
REMARK   60  A    between atoms: _133  and  _135
REMARK   61  A    between atoms: _135  and  _136
REMARK   62  A    between atoms: _135  and  _138
REMARK   63  A    between atoms: _138  and  _139
REMARK   64  A    between atoms: _139  and  _140
REMARK   65  A    between atoms: _140  and  _141
REMARK   66  A    between atoms: _141  and  _142
REMARK   67  A    between atoms: _146  and  _148
REMARK   68  A    between atoms: _148  and  _149
REMARK   69  A    between atoms: _148  and  _151
REMARK   70  A    between atoms: _151  and  _152
REMARK   71  A    between atoms: _152  and  _153
REMARK   72  A    between atoms: _155  and  _157
REMARK   73  A    between atoms: _157  and  _158
REMARK   74  A    between atoms: _157  and  _160
REMARK   75  A    between atoms: _160  and  _161
REMARK   76  A    between atoms: _166  and  _168
REMARK   77  A    between atoms: _168  and  _169
REMARK   78  A    between atoms: _168  and  _171
REMARK   79  A    between atoms: _171  and  _172
REMARK   80  A    between atoms: _172  and  _173
REMARK   81  A    between atoms: _176  and  _178
REMARK   82  A    between atoms: _178  and  _179
REMARK   83  A    between atoms: _178  and  _181
REMARK   84  A    between atoms: _184  and  _186
REMARK   85  A    between atoms: _186  and  _187
REMARK   86  A    between atoms: _186  and  _189
REMARK   87  A    between atoms: _189  and  _190
REMARK   88  A    between atoms: _190  and  _191
REMARK   89  A    between atoms: _193  and  _195
REMARK   90  A    between atoms: _195  and  _196
REMARK   91  A    between atoms: _195  and  _198
REMARK   92  A    between atoms: _201  and  _203
REMARK   93  A    between atoms: _203  and  _204
REMARK   94  A    between atoms: _203  and  _206
REMARK   95  A    between atoms: _209  and  _211
REMARK   96  A    between atoms: _211  and  _212
REMARK   97  A    between atoms: _211  and  _214
REMARK   98  A    between atoms: _214  and  _215
REMARK   99  A    between atoms: _215  and  _216
REMARK  100  A    between atoms: _219  and  _221
REMARK  101  A    between atoms: _221  and  _222
REMARK  102  A    between atoms: _221  and  _224
REMARK  103  A    between atoms: _224  and  _225
REMARK  104  A    between atoms: _225  and  _226
REMARK  105  A    between atoms: _228  and  _230
REMARK  106  A    between atoms: _230  and  _231
REMARK  107  A    between atoms: _230  and  _233
REMARK  108  A    between atoms: _233  and  _234
REMARK  109  A    between atoms: _239  and  _240
REMARK  110  A    between atoms: _242  and  _244
REMARK  111  A    between atoms: _244  and  _245
REMARK  112  A    between atoms: _244  and  _247
REMARK  113  A    between atoms: _247  and  _248
REMARK  114  A    between atoms: _253  and  _255
REMARK  115  A    between atoms: _255  and  _256
REMARK  116  A    between atoms: _255  and  _258
REMARK  117  A    between atoms: _258  and  _259
REMARK  118  A    between atoms: _269  and  _271
REMARK  119  A    between atoms: _271  and  _272
REMARK  120  A    between atoms: _271  and  _274
REMARK  121  A    between atoms: _277  and  _279
REMARK  122  A    between atoms: _279  and  _280
REMARK  123  A    between atoms: _279  and  _282
REMARK  124  A    between atoms: _285  and  _287
REMARK  125  A    between atoms: _287  and  _288
REMARK  126  A    between atoms: _287  and  _290
REMARK  127  A    between atoms: _290  and  _291
REMARK  128  A    between atoms: _291  and  _292
REMARK  129  A    between atoms: _294  and  _296
REMARK  130  A    between atoms: _296  and  _297
REMARK  131  A    between atoms: _296  and  _299
REMARK  132  A    between atoms: _299  and  _300
REMARK  133  A    between atoms: _300  and  _301
REMARK  134  A    between atoms: _304  and  _306
REMARK  135  A    between atoms: _306  and  _307
REMARK  136  A    between atoms: _306  and  _309
REMARK  137  A    between atoms: _309  and  _310
REMARK  138  A    between atoms: _316  and  _318
REMARK  139  A    between atoms: _318  and  _319
REMARK  140  A    between atoms: _318  and  _321
REMARK  141  A    between atoms: _321  and  _322
REMARK  142  A    between atoms: _325  and  _327
REMARK  143  A    between atoms: _327  and  _328
REMARK  144  A    between atoms: _327  and  _330
REMARK  145  A    between atoms: _330  and  _331
REMARK  146  A    between atoms: _331  and  _332
REMARK  147  A    between atoms: _335  and  _337
REMARK  148  A    between atoms: _337  and  _338
REMARK  149  A    between atoms: _340  and  _342
REMARK  150  A    between atoms: _342  and  _343
REMARK  151  A    between atoms: _345  and  _347
REMARK  152  A    between atoms: _347  and  _348
REMARK  153  A    between atoms: _351  and  _353
REMARK  154  A    between atoms: _353  and  _354
REMARK  155  A    between atoms: _353  and  _356
REMARK  156  A    between atoms: _356  and  _357
REMARK  157  A    between atoms: _360  and  _362
REMARK  158  A    between atoms: _362  and  _363
REMARK  159  A    between atoms: _362  and  _365
REMARK  160  A    between atoms: _365  and  _366
REMARK  161  A    between atoms: _369  and  _371
REMARK  162  A    between atoms: _371  and  _372
REMARK  163  A    between atoms: _371  and  _374
REMARK  164  A    between atoms: _374  and  _375
REMARK  165  A    between atoms: _378  and  _380
REMARK  166  A    between atoms: _380  and  _381
REMARK  167  A    between atoms: _380  and  _383
REMARK  168  A    between atoms: _383  and  _384
REMARK  169  A    between atoms: _389  and  _391
REMARK  170  A    between atoms: _391  and  _392
REMARK  171  A    between atoms: _391  and  _394
REMARK  172  A    between atoms: _394  and  _395
REMARK  173  A    between atoms: _397  and  _399
REMARK  174  A    between atoms: _399  and  _400
REMARK  175  A    between atoms: _399  and  _402
REMARK  176  A    between atoms: _402  and  _403
REMARK  177  A    between atoms: _406  and  _408
REMARK  178  A    between atoms: _408  and  _409
REMARK  179  A    between atoms: _408  and  _411
REMARK  180  A    between atoms: _411  and  _412
REMARK  181  A    between atoms: _414  and  _416
REMARK  182  A    between atoms: _416  and  _417
REMARK  183  A    between atoms: _416  and  _419
REMARK  184  A    between atoms: _419  and  _420
REMARK  185  A    between atoms: _423  and  _425
REMARK  186  A    between atoms: _425  and  _426
REMARK  187  A    between atoms: _425  and  _428
REMARK  188  A    between atoms: _428  and  _429
REMARK  189  A    between atoms: _432  and  _434
REMARK  190  A    between atoms: _434  and  _435
REMARK  191  A    between atoms: _434  and  _437
REMARK  192  A    between atoms: _437  and  _438
REMARK  193  A    between atoms: _441  and  _443
REMARK  194  A    between atoms: _443  and  _444
REMARK  195  A    between atoms: _443  and  _446
REMARK  196  A    between atoms: _446  and  _447
REMARK  197  A    between atoms: _450  and  _452
REMARK  198  A    between atoms: _452  and  _453
REMARK  199  A    between atoms: _452  and  _455
REMARK  200  A    between atoms: _455  and  _456
REMARK  201  A    between atoms: _458  and  _460
REMARK  202  A    between atoms: _460  and  _461
REMARK  203  A    between atoms: _460  and  _463
REMARK  204  A    between atoms: _463  and  _464
REMARK  205  A    between atoms: _467  and  _469
REMARK  206  A    between atoms: _469  and  _470
REMARK  207  A    between atoms: _469  and  _472
REMARK  208  A    between atoms: _472  and  _473
REMARK  209  A    between atoms: _479  and  _481
REMARK  210  A    between atoms: _481  and  _482
REMARK  211  A    between atoms: _484  and  _486
REMARK  212  A    between atoms: _486  and  _487
REMARK  213  A    between atoms: _486  and  _489
REMARK  214  A    between atoms: _489  and  _490
REMARK  215  A    between atoms: _496  and  _498
REMARK  216  A    between atoms: _498  and  _499
REMARK  217  A    between atoms: _498  and  _501
REMARK                            x       y       z     vdW  Elec       q    Type
REMARK                         _______ _______ _______ _____ _____    ______ ____
ROOT
ATOM      1  O   HOH     1       5.366 -35.705  23.886  0.00  0.00    +0.000 OA
ENDROOT
TORSDOF 0
REMARK  Name = ../refined-set-2016/4o0y/4o0y_pocket.pdb
REMARK  217 active torsions:
REMARK  status: ('A' for Active; 'I' for Inactive)
REMARK    1  A    between atoms: _1  and  _3
REMARK    2  A    between atoms: _3  and  _4
REMARK    3  A    between atoms: _3  and  _6
REMARK    4  A    between atoms: _6  and  _7
REMARK    5  A    between atoms: _7  and  _8
REMARK    6  A    between atoms: _8  and  _9
REMARK    7  A    between atoms: _9  and  _10
REMARK    8  A    between atoms: _14  and  _16
REMARK    9  A    between atoms: _16  and  _17
REMARK   10  A    between atoms: _16  and  _19
REMARK   11  A    between atoms: _19  and  _20
REMARK   12  A    between atoms: _23  and  _25
REMARK   13  A    between atoms: _25  and  _26
REMARK   14  A    between atoms: _28  and  _30
REMARK   15  A    between atoms: _30  and  _31
REMARK   16  A    between atoms: _30  and  _33
REMARK   17  A    between atoms: _33  and  _34
REMARK   18  A    between atoms: _34  and  _35
REMARK   19  A    between atoms: _38  and  _40
REMARK   20  A    between atoms: _40  and  _41
REMARK   21  A    between atoms: _43  and  _45
REMARK   22  A    between atoms: _45  and  _46
REMARK   23  A    between atoms: _45  and  _48
REMARK   24  A    between atoms: _48  and  _49
REMARK   25  A    between atoms: _51  and  _53
REMARK   26  A    between atoms: _53  and  _54
REMARK   27  A    between atoms: _53  and  _56
REMARK   28  A    between atoms: _56  and  _57
REMARK   29  A    between atoms: _60  and  _62
REMARK   30  A    between atoms: _62  and  _63
REMARK   31  A    between atoms: _65  and  _67
REMARK   32  A    between atoms: _67  and  _68
REMARK   33  A    between atoms: _67  and  _70
REMARK   34  A    between atoms: _70  and  _71
REMARK   35  A    between atoms: _74  and  _76
REMARK   36  A    between atoms: _76  and  _77
REMARK   37  A    between atoms: _76  and  _79
REMARK   38  A    between atoms: _82  and  _84
REMARK   39  A    between atoms: _84  and  _85
REMARK   40  A    between atoms: _84  and  _87
REMARK   41  A    between atoms: _89  and  _91
REMARK   42  A    between atoms: _91  and  _92
REMARK   43  A    between atoms: _91  and  _94
REMARK   44  A    between atoms: _94  and  _95
REMARK   45  A    between atoms: _98  and  _100
REMARK   46  A    between atoms: _100  and  _101
REMARK   47  A    between atoms: _100  and  _103
REMARK   48  A    between atoms: _106  and  _108
REMARK   49  A    between atoms: _108  and  _109
REMARK   50  A    between atoms: _112  and  _114
REMARK   51  A    between atoms: _114  and  _115
REMARK   52  A    between atoms: _114  and  _117
REMARK   53  A    between atoms: _120  and  _122
REMARK   54  A    between atoms: _122  and  _123
REMARK   55  A    between atoms: _122  and  _125
REMARK   56  A    between atoms: _125  and  _126
REMARK   57  A    between atoms: _126  and  _127
REMARK   58  A    between atoms: _127  and  _128
REMARK   59  A    between atoms: _128  and  _129
REMARK   60  A    between atoms: _133  and  _135
REMARK   61  A    between atoms: _135  and  _136
REMARK   62  A    between atoms: _135  and  _138
REMARK   63  A    between atoms: _138  and  _139
REMARK   64  A    between atoms: _139  and  _140
REMARK   65  A    between atoms: _140  and  _141
REMARK   66  A    between atoms: _141  and  _142
REMARK   67  A    between atoms: _146  and  _148
REMARK   68  A    between atoms: _148  and  _149
REMARK   69  A    between atoms: _148  and  _151
REMARK   70  A    between atoms: _151  and  _152
REMARK   71  A    between atoms: _152  and  _153
REMARK   72  A    between atoms: _155  and  _157
REMARK   73  A    between atoms: _157  and  _158
REMARK   74  A    between atoms: _157  and  _160
REMARK   75  A    between atoms: _160  and  _161
REMARK   76  A    between atoms: _166  and  _168
REMARK   77  A    between atoms: _168  and  _169
REMARK   78  A    between atoms: _168  and  _171
REMARK   79  A    between atoms: _171  and  _172
REMARK   80  A    between atoms: _172  and  _173
REMARK   81  A    between atoms: _176  and  _178
REMARK   82  A    between atoms: _178  and  _179
REMARK   83  A    between atoms: _178  and  _181
REMARK   84  A    between atoms: _184  and  _186
REMARK   85  A    between atoms: _186  and  _187
REMARK   86  A    between atoms: _186  and  _189
REMARK   87  A    between atoms: _189  and  _190
REMARK   88  A    between atoms: _190  and  _191
REMARK   89  A    between atoms: _193  and  _195
REMARK   90  A    between atoms: _195  and  _196
REMARK   91  A    between atoms: _195  and  _198
REMARK   92  A    between atoms: _201  and  _203
REMARK   93  A    between atoms: _203  and  _204
REMARK   94  A    between atoms: _203  and  _206
REMARK   95  A    between atoms: _209  and  _211
REMARK   96  A    between atoms: _211  and  _212
REMARK   97  A    between atoms: _211  and  _214
REMARK   98  A    between atoms: _214  and  _215
REMARK   99  A    between atoms: _215  and  _216
REMARK  100  A    between atoms: _219  and  _221
REMARK  101  A    between atoms: _221  and  _222
REMARK  102  A    between atoms: _221  and  _224
REMARK  103  A    between atoms: _224  and  _225
REMARK  104  A    between atoms: _225  and  _226
REMARK  105  A    between atoms: _228  and  _230
REMARK  106  A    between atoms: _230  and  _231
REMARK  107  A    between atoms: _230  and  _233
REMARK  108  A    between atoms: _233  and  _234
REMARK  109  A    between atoms: _239  and  _240
REMARK  110  A    between atoms: _242  and  _244
REMARK  111  A    between atoms: _244  and  _245
REMARK  112  A    between atoms: _244  and  _247
REMARK  113  A    between atoms: _247  and  _248
REMARK  114  A    between atoms: _253  and  _255
REMARK  115  A    between atoms: _255  and  _256
REMARK  116  A    between atoms: _255  and  _258
REMARK  117  A    between atoms: _258  and  _259
REMARK  118  A    between atoms: _269  and  _271
REMARK  119  A    between atoms: _271  and  _272
REMARK  120  A    between atoms: _271  and  _274
REMARK  121  A    between atoms: _277  and  _279
REMARK  122  A    between atoms: _279  and  _280
REMARK  123  A    between atoms: _279  and  _282
REMARK  124  A    between atoms: _285  and  _287
REMARK  125  A    between atoms: _287  and  _288
REMARK  126  A    between atoms: _287  and  _290
REMARK  127  A    between atoms: _290  and  _291
REMARK  128  A    between atoms: _291  and  _292
REMARK  129  A    between atoms: _294  and  _296
REMARK  130  A    between atoms: _296  and  _297
REMARK  131  A    between atoms: _296  and  _299
REMARK  132  A    between atoms: _299  and  _300
REMARK  133  A    between atoms: _300  and  _301
REMARK  134  A    between atoms: _304  and  _306
REMARK  135  A    between atoms: _306  and  _307
REMARK  136  A    between atoms: _306  and  _309
REMARK  137  A    between atoms: _309  and  _310
REMARK  138  A    between atoms: _316  and  _318
REMARK  139  A    between atoms: _318  and  _319
REMARK  140  A    between atoms: _318  and  _321
REMARK  141  A    between atoms: _321  and  _322
REMARK  142  A    between atoms: _325  and  _327
REMARK  143  A    between atoms: _327  and  _328
REMARK  144  A    between atoms: _327  and  _330
REMARK  145  A    between atoms: _330  and  _331
REMARK  146  A    between atoms: _331  and  _332
REMARK  147  A    between atoms: _335  and  _337
REMARK  148  A    between atoms: _337  and  _338
REMARK  149  A    between atoms: _340  and  _342
REMARK  150  A    between atoms: _342  and  _343
REMARK  151  A    between atoms: _345  and  _347
REMARK  152  A    between atoms: _347  and  _348
REMARK  153  A    between atoms: _351  and  _353
REMARK  154  A    between atoms: _353  and  _354
REMARK  155  A    between atoms: _353  and  _356
REMARK  156  A    between atoms: _356  and  _357
REMARK  157  A    between atoms: _360  and  _362
REMARK  158  A    between atoms: _362  and  _363
REMARK  159  A    between atoms: _362  and  _365
REMARK  160  A    between atoms: _365  and  _366
REMARK  161  A    between atoms: _369  and  _371
REMARK  162  A    between atoms: _371  and  _372
REMARK  163  A    between atoms: _371  and  _374
REMARK  164  A    between atoms: _374  and  _375
REMARK  165  A    between atoms: _378  and  _380
REMARK  166  A    between atoms: _380  and  _381
REMARK  167  A    between atoms: _380  and  _383
REMARK  168  A    between atoms: _383  and  _384
REMARK  169  A    between atoms: _389  and  _391
REMARK  170  A    between atoms: _391  and  _392
REMARK  171  A    between atoms: _391  and  _394
REMARK  172  A    between atoms: _394  and  _395
REMARK  173  A    between atoms: _397  and  _399
REMARK  174  A    between atoms: _399  and  _400
REMARK  175  A    between atoms: _399  and  _402
REMARK  176  A    between atoms: _402  and  _403
REMARK  177  A    between atoms: _406  and  _408
REMARK  178  A    between atoms: _408  and  _409
REMARK  179  A    between atoms: _408  and  _411
REMARK  180  A    between atoms: _411  and  _412
REMARK  181  A    between atoms: _414  and  _416
REMARK  182  A    between atoms: _416  and  _417
REMARK  183  A    between atoms: _416  and  _419
REMARK  184  A    between atoms: _419  and  _420
REMARK  185  A    between atoms: _423  and  _425
REMARK  186  A    between atoms: _425  and  _426
REMARK  187  A    between atoms: _425  and  _428
REMARK  188  A    between atoms: _428  and  _429
REMARK  189  A    between atoms: _432  and  _434
REMARK  190  A    between atoms: _434  and  _435
REMARK  191  A    between atoms: _434  and  _437
REMARK  192  A    between atoms: _437  and  _438
REMARK  193  A    between atoms: _441  and  _443
REMARK  194  A    between atoms: _443  and  _444
REMARK  195  A    between atoms: _443  and  _446
REMARK  196  A    between atoms: _446  and  _447
REMARK  197  A    between atoms: _450  and  _452
REMARK  198  A    between atoms: _452  and  _453
REMARK  199  A    between atoms: _452  and  _455
REMARK  200  A    between atoms: _455  and  _456
REMARK  201  A    between atoms: _458  and  _460
REMARK  202  A    between atoms: _460  and  _461
REMARK  203  A    between atoms: _460  and  _463
REMARK  204  A    between atoms: _463  and  _464
REMARK  205  A    between atoms: _467  and  _469
REMARK  206  A    between atoms: _469  and  _470
REMARK  207  A    between atoms: _469  and  _472
REMARK  208  A    between atoms: _472  and  _473
REMARK  209  A    between atoms: _479  and  _481
REMARK  210  A    between atoms: _481  and  _482
REMARK  211  A    between atoms: _484  and  _486
REMARK  212  A    between atoms: _486  and  _487
REMARK  213  A    between atoms: _486  and  _489
REMARK  214  A    between atoms: _489  and  _490
REMARK  215  A    between atoms: _496  and  _498
REMARK  216  A    between atoms: _498  and  _499
REMARK  217  A    between atoms: _498  and  _501
REMARK                            x       y       z     vdW  Elec       q    Type
REMARK                         _______ _______ _______ _____ _____    ______ ____
ROOT
ATOM      1  O   HOH     1      11.244 -30.613  11.473  0.00  0.00    +0.000 OA
ENDROOT
TORSDOF 0
REMARK  Name = ../refined-set-2016/4o0y/4o0y_pocket.pdb
REMARK  217 active torsions:
REMARK  status: ('A' for Active; 'I' for Inactive)
REMARK    1  A    between atoms: _1  and  _3
REMARK    2  A    between atoms: _3  and  _4
REMARK    3  A    between atoms: _3  and  _6
REMARK    4  A    between atoms: _6  and  _7
REMARK    5  A    between atoms: _7  and  _8
REMARK    6  A    between atoms: _8  and  _9
REMARK    7  A    between atoms: _9  and  _10
REMARK    8  A    between atoms: _14  and  _16
REMARK    9  A    between atoms: _16  and  _17
REMARK   10  A    between atoms: _16  and  _19
REMARK   11  A    between atoms: _19  and  _20
REMARK   12  A    between atoms: _23  and  _25
REMARK   13  A    between atoms: _25  and  _26
REMARK   14  A    between atoms: _28  and  _30
REMARK   15  A    between atoms: _30  and  _31
REMARK   16  A    between atoms: _30  and  _33
REMARK   17  A    between atoms: _33  and  _34
REMARK   18  A    between atoms: _34  and  _35
REMARK   19  A    between atoms: _38  and  _40
REMARK   20  A    between atoms: _40  and  _41
REMARK   21  A    between atoms: _43  and  _45
REMARK   22  A    between atoms: _45  and  _46
REMARK   23  A    between atoms: _45  and  _48
REMARK   24  A    between atoms: _48  and  _49
REMARK   25  A    between atoms: _51  and  _53
REMARK   26  A    between atoms: _53  and  _54
REMARK   27  A    between atoms: _53  and  _56
REMARK   28  A    between atoms: _56  and  _57
REMARK   29  A    between atoms: _60  and  _62
REMARK   30  A    between atoms: _62  and  _63
REMARK   31  A    between atoms: _65  and  _67
REMARK   32  A    between atoms: _67  and  _68
REMARK   33  A    between atoms: _67  and  _70
REMARK   34  A    between atoms: _70  and  _71
REMARK   35  A    between atoms: _74  and  _76
REMARK   36  A    between atoms: _76  and  _77
REMARK   37  A    between atoms: _76  and  _79
REMARK   38  A    between atoms: _82  and  _84
REMARK   39  A    between atoms: _84  and  _85
REMARK   40  A    between atoms: _84  and  _87
REMARK   41  A    between atoms: _89  and  _91
REMARK   42  A    between atoms: _91  and  _92
REMARK   43  A    between atoms: _91  and  _94
REMARK   44  A    between atoms: _94  and  _95
REMARK   45  A    between atoms: _98  and  _100
REMARK   46  A    between atoms: _100  and  _101
REMARK   47  A    between atoms: _100  and  _103
REMARK   48  A    between atoms: _106  and  _108
REMARK   49  A    between atoms: _108  and  _109
REMARK   50  A    between atoms: _112  and  _114
REMARK   51  A    between atoms: _114  and  _115
REMARK   52  A    between atoms: _114  and  _117
REMARK   53  A    between atoms: _120  and  _122
REMARK   54  A    between atoms: _122  and  _123
REMARK   55  A    between atoms: _122  and  _125
REMARK   56  A    between atoms: _125  and  _126
REMARK   57  A    between atoms: _126  and  _127
REMARK   58  A    between atoms: _127  and  _128
REMARK   59  A    between atoms: _128  and  _129
REMARK   60  A    between atoms: _133  and  _135
REMARK   61  A    between atoms: _135  and  _136
REMARK   62  A    between atoms: _135  and  _138
REMARK   63  A    between atoms: _138  and  _139
REMARK   64  A    between atoms: _139  and  _140
REMARK   65  A    between atoms: _140  and  _141
REMARK   66  A    between atoms: _141  and  _142
REMARK   67  A    between atoms: _146  and  _148
REMARK   68  A    between atoms: _148  and  _149
REMARK   69  A    between atoms: _148  and  _151
REMARK   70  A    between atoms: _151  and  _152
REMARK   71  A    between atoms: _152  and  _153
REMARK   72  A    between atoms: _155  and  _157
REMARK   73  A    between atoms: _157  and  _158
REMARK   74  A    between atoms: _157  and  _160
REMARK   75  A    between atoms: _160  and  _161
REMARK   76  A    between atoms: _166  and  _168
REMARK   77  A    between atoms: _168  and  _169
REMARK   78  A    between atoms: _168  and  _171
REMARK   79  A    between atoms: _171  and  _172
REMARK   80  A    between atoms: _172  and  _173
REMARK   81  A    between atoms: _176  and  _178
REMARK   82  A    between atoms: _178  and  _179
REMARK   83  A    between atoms: _178  and  _181
REMARK   84  A    between atoms: _184  and  _186
REMARK   85  A    between atoms: _186  and  _187
REMARK   86  A    between atoms: _186  and  _189
REMARK   87  A    between atoms: _189  and  _190
REMARK   88  A    between atoms: _190  and  _191
REMARK   89  A    between atoms: _193  and  _195
REMARK   90  A    between atoms: _195  and  _196
REMARK   91  A    between atoms: _195  and  _198
REMARK   92  A    between atoms: _201  and  _203
REMARK   93  A    between atoms: _203  and  _204
REMARK   94  A    between atoms: _203  and  _206
REMARK   95  A    between atoms: _209  and  _211
REMARK   96  A    between atoms: _211  and  _212
REMARK   97  A    between atoms: _211  and  _214
REMARK   98  A    between atoms: _214  and  _215
REMARK   99  A    between atoms: _215  and  _216
REMARK  100  A    between atoms: _219  and  _221
REMARK  101  A    between atoms: _221  and  _222
REMARK  102  A    between atoms: _221  and  _224
REMARK  103  A    between atoms: _224  and  _225
REMARK  104  A    between atoms: _225  and  _226
REMARK  105  A    between atoms: _228  and  _230
REMARK  106  A    between atoms: _230  and  _231
REMARK  107  A    between atoms: _230  and  _233
REMARK  108  A    between atoms: _233  and  _234
REMARK  109  A    between atoms: _239  and  _240
REMARK  110  A    between atoms: _242  and  _244
REMARK  111  A    between atoms: _244  and  _245
REMARK  112  A    between atoms: _244  and  _247
REMARK  113  A    between atoms: _247  and  _248
REMARK  114  A    between atoms: _253  and  _255
REMARK  115  A    between atoms: _255  and  _256
REMARK  116  A    between atoms: _255  and  _258
REMARK  117  A    between atoms: _258  and  _259
REMARK  118  A    between atoms: _269  and  _271
REMARK  119  A    between atoms: _271  and  _272
REMARK  120  A    between atoms: _271  and  _274
REMARK  121  A    between atoms: _277  and  _279
REMARK  122  A    between atoms: _279  and  _280
REMARK  123  A    between atoms: _279  and  _282
REMARK  124  A    between atoms: _285  and  _287
REMARK  125  A    between atoms: _287  and  _288
REMARK  126  A    between atoms: _287  and  _290
REMARK  127  A    between atoms: _290  and  _291
REMARK  128  A    between atoms: _291  and  _292
REMARK  129  A    between atoms: _294  and  _296
REMARK  130  A    between atoms: _296  and  _297
REMARK  131  A    between atoms: _296  and  _299
REMARK  132  A    between atoms: _299  and  _300
REMARK  133  A    between atoms: _300  and  _301
REMARK  134  A    between atoms: _304  and  _306
REMARK  135  A    between atoms: _306  and  _307
REMARK  136  A    between atoms: _306  and  _309
REMARK  137  A    between atoms: _309  and  _310
REMARK  138  A    between atoms: _316  and  _318
REMARK  139  A    between atoms: _318  and  _319
REMARK  140  A    between atoms: _318  and  _321
REMARK  141  A    between atoms: _321  and  _322
REMARK  142  A    between atoms: _325  and  _327
REMARK  143  A    between atoms: _327  and  _328
REMARK  144  A    between atoms: _327  and  _330
REMARK  145  A    between atoms: _330  and  _331
REMARK  146  A    between atoms: _331  and  _332
REMARK  147  A    between atoms: _335  and  _337
REMARK  148  A    between atoms: _337  and  _338
REMARK  149  A    between atoms: _340  and  _342
REMARK  150  A    between atoms: _342  and  _343
REMARK  151  A    between atoms: _345  and  _347
REMARK  152  A    between atoms: _347  and  _348
REMARK  153  A    between atoms: _351  and  _353
REMARK  154  A    between atoms: _353  and  _354
REMARK  155  A    between atoms: _353  and  _356
REMARK  156  A    between atoms: _356  and  _357
REMARK  157  A    between atoms: _360  and  _362
REMARK  158  A    between atoms: _362  and  _363
REMARK  159  A    between atoms: _362  and  _365
REMARK  160  A    between atoms: _365  and  _366
REMARK  161  A    between atoms: _369  and  _371
REMARK  162  A    between atoms: _371  and  _372
REMARK  163  A    between atoms: _371  and  _374
REMARK  164  A    between atoms: _374  and  _375
REMARK  165  A    between atoms: _378  and  _380
REMARK  166  A    between atoms: _380  and  _381
REMARK  167  A    between atoms: _380  and  _383
REMARK  168  A    between atoms: _383  and  _384
REMARK  169  A    between atoms: _389  and  _391
REMARK  170  A    between atoms: _391  and  _392
REMARK  171  A    between atoms: _391  and  _394
REMARK  172  A    between atoms: _394  and  _395
REMARK  173  A    between atoms: _397  and  _399
REMARK  174  A    between atoms: _399  and  _400
REMARK  175  A    between atoms: _399  and  _402
REMARK  176  A    between atoms: _402  and  _403
REMARK  177  A    between atoms: _406  and  _408
REMARK  178  A    between atoms: _408  and  _409
REMARK  179  A    between atoms: _408  and  _411
REMARK  180  A    between atoms: _411  and  _412
REMARK  181  A    between atoms: _414  and  _416
REMARK  182  A    between atoms: _416  and  _417
REMARK  183  A    between atoms: _416  and  _419
REMARK  184  A    between atoms: _419  and  _420
REMARK  185  A    between atoms: _423  and  _425
REMARK  186  A    between atoms: _425  and  _426
REMARK  187  A    between atoms: _425  and  _428
REMARK  188  A    between atoms: _428  and  _429
REMARK  189  A    between atoms: _432  and  _434
REMARK  190  A    between atoms: _434  and  _435
REMARK  191  A    between atoms: _434  and  _437
REMARK  192  A    between atoms: _437  and  _438
REMARK  193  A    between atoms: _441  and  _443
REMARK  194  A    between atoms: _443  and  _444
REMARK  195  A    between atoms: _443  and  _446
REMARK  196  A    between atoms: _446  and  _447
REMARK  197  A    between atoms: _450  and  _452
REMARK  198  A    between atoms: _452  and  _453
REMARK  199  A    between atoms: _452  and  _455
REMARK  200  A    between atoms: _455  and  _456
REMARK  201  A    between atoms: _458  and  _460
REMARK  202  A    between atoms: _460  and  _461
REMARK  203  A    between atoms: _460  and  _463
REMARK  204  A    between atoms: _463  and  _464
REMARK  205  A    between atoms: _467  and  _469
REMARK  206  A    between atoms: _469  and  _470
REMARK  207  A    between atoms: _469  and  _472
REMARK  208  A    between atoms: _472  and  _473
REMARK  209  A    between atoms: _479  and  _481
REMARK  210  A    between atoms: _481  and  _482
REMARK  211  A    between atoms: _484  and  _486
REMARK  212  A    between atoms: _486  and  _487
REMARK  213  A    between atoms: _486  and  _489
REMARK  214  A    between atoms: _489  and  _490
REMARK  215  A    between atoms: _496  and  _498
REMARK  216  A    between atoms: _498  and  _499
REMARK  217  A    between atoms: _498  and  _501
REMARK                            x       y       z     vdW  Elec       q    Type
REMARK                         _______ _______ _______ _____ _____    ______ ____
ROOT
ATOM      1  O   HOH     1       7.088 -40.258   8.642  0.00  0.00    +0.000 OA
ENDROOT
TORSDOF 0
REMARK  Name = ../refined-set-2016/4o0y/4o0y_pocket.pdb
REMARK  217 active torsions:
REMARK  status: ('A' for Active; 'I' for Inactive)
REMARK    1  A    between atoms: _1  and  _3
REMARK    2  A    between atoms: _3  and  _4
REMARK    3  A    between atoms: _3  and  _6
REMARK    4  A    between atoms: _6  and  _7
REMARK    5  A    between atoms: _7  and  _8
REMARK    6  A    between atoms: _8  and  _9
REMARK    7  A    between atoms: _9  and  _10
REMARK    8  A    between atoms: _14  and  _16
REMARK    9  A    between atoms: _16  and  _17
REMARK   10  A    between atoms: _16  and  _19
REMARK   11  A    between atoms: _19  and  _20
REMARK   12  A    between atoms: _23  and  _25
REMARK   13  A    between atoms: _25  and  _26
REMARK   14  A    between atoms: _28  and  _30
REMARK   15  A    between atoms: _30  and  _31
REMARK   16  A    between atoms: _30  and  _33
REMARK   17  A    between atoms: _33  and  _34
REMARK   18  A    between atoms: _34  and  _35
REMARK   19  A    between atoms: _38  and  _40
REMARK   20  A    between atoms: _40  and  _41
REMARK   21  A    between atoms: _43  and  _45
REMARK   22  A    between atoms: _45  and  _46
REMARK   23  A    between atoms: _45  and  _48
REMARK   24  A    between atoms: _48  and  _49
REMARK   25  A    between atoms: _51  and  _53
REMARK   26  A    between atoms: _53  and  _54
REMARK   27  A    between atoms: _53  and  _56
REMARK   28  A    between atoms: _56  and  _57
REMARK   29  A    between atoms: _60  and  _62
REMARK   30  A    between atoms: _62  and  _63
REMARK   31  A    between atoms: _65  and  _67
REMARK   32  A    between atoms: _67  and  _68
REMARK   33  A    between atoms: _67  and  _70
REMARK   34  A    between atoms: _70  and  _71
REMARK   35  A    between atoms: _74  and  _76
REMARK   36  A    between atoms: _76  and  _77
REMARK   37  A    between atoms: _76  and  _79
REMARK   38  A    between atoms: _82  and  _84
REMARK   39  A    between atoms: _84  and  _85
REMARK   40  A    between atoms: _84  and  _87
REMARK   41  A    between atoms: _89  and  _91
REMARK   42  A    between atoms: _91  and  _92
REMARK   43  A    between atoms: _91  and  _94
REMARK   44  A    between atoms: _94  and  _95
REMARK   45  A    between atoms: _98  and  _100
REMARK   46  A    between atoms: _100  and  _101
REMARK   47  A    between atoms: _100  and  _103
REMARK   48  A    between atoms: _106  and  _108
REMARK   49  A    between atoms: _108  and  _109
REMARK   50  A    between atoms: _112  and  _114
REMARK   51  A    between atoms: _114  and  _115
REMARK   52  A    between atoms: _114  and  _117
REMARK   53  A    between atoms: _120  and  _122
REMARK   54  A    between atoms: _122  and  _123
REMARK   55  A    between atoms: _122  and  _125
REMARK   56  A    between atoms: _125  and  _126
REMARK   57  A    between atoms: _126  and  _127
REMARK   58  A    between atoms: _127  and  _128
REMARK   59  A    between atoms: _128  and  _129
REMARK   60  A    between atoms: _133  and  _135
REMARK   61  A    between atoms: _135  and  _136
REMARK   62  A    between atoms: _135  and  _138
REMARK   63  A    between atoms: _138  and  _139
REMARK   64  A    between atoms: _139  and  _140
REMARK   65  A    between atoms: _140  and  _141
REMARK   66  A    between atoms: _141  and  _142
REMARK   67  A    between atoms: _146  and  _148
REMARK   68  A    between atoms: _148  and  _149
REMARK   69  A    between atoms: _148  and  _151
REMARK   70  A    between atoms: _151  and  _152
REMARK   71  A    between atoms: _152  and  _153
REMARK   72  A    between atoms: _155  and  _157
REMARK   73  A    between atoms: _157  and  _158
REMARK   74  A    between atoms: _157  and  _160
REMARK   75  A    between atoms: _160  and  _161
REMARK   76  A    between atoms: _166  and  _168
REMARK   77  A    between atoms: _168  and  _169
REMARK   78  A    between atoms: _168  and  _171
REMARK   79  A    between atoms: _171  and  _172
REMARK   80  A    between atoms: _172  and  _173
REMARK   81  A    between atoms: _176  and  _178
REMARK   82  A    between atoms: _178  and  _179
REMARK   83  A    between atoms: _178  and  _181
REMARK   84  A    between atoms: _184  and  _186
REMARK   85  A    between atoms: _186  and  _187
REMARK   86  A    between atoms: _186  and  _189
REMARK   87  A    between atoms: _189  and  _190
REMARK   88  A    between atoms: _190  and  _191
REMARK   89  A    between atoms: _193  and  _195
REMARK   90  A    between atoms: _195  and  _196
REMARK   91  A    between atoms: _195  and  _198
REMARK   92  A    between atoms: _201  and  _203
REMARK   93  A    between atoms: _203  and  _204
REMARK   94  A    between atoms: _203  and  _206
REMARK   95  A    between atoms: _209  and  _211
REMARK   96  A    between atoms: _211  and  _212
REMARK   97  A    between atoms: _211  and  _214
REMARK   98  A    between atoms: _214  and  _215
REMARK   99  A    between atoms: _215  and  _216
REMARK  100  A    between atoms: _219  and  _221
REMARK  101  A    between atoms: _221  and  _222
REMARK  102  A    between atoms: _221  and  _224
REMARK  103  A    between atoms: _224  and  _225
REMARK  104  A    between atoms: _225  and  _226
REMARK  105  A    between atoms: _228  and  _230
REMARK  106  A    between atoms: _230  and  _231
REMARK  107  A    between atoms: _230  and  _233
REMARK  108  A    between atoms: _233  and  _234
REMARK  109  A    between atoms: _239  and  _240
REMARK  110  A    between atoms: _242  and  _244
REMARK  111  A    between atoms: _244  and  _245
REMARK  112  A    between atoms: _244  and  _247
REMARK  113  A    between atoms: _247  and  _248
REMARK  114  A    between atoms: _253  and  _255
REMARK  115  A    between atoms: _255  and  _256
REMARK  116  A    between atoms: _255  and  _258
REMARK  117  A    between atoms: _258  and  _259
REMARK  118  A    between atoms: _269  and  _271
REMARK  119  A    between atoms: _271  and  _272
REMARK  120  A    between atoms: _271  and  _274
REMARK  121  A    between atoms: _277  and  _279
REMARK  122  A    between atoms: _279  and  _280
REMARK  123  A    between atoms: _279  and  _282
REMARK  124  A    between atoms: _285  and  _287
REMARK  125  A    between atoms: _287  and  _288
REMARK  126  A    between atoms: _287  and  _290
REMARK  127  A    between atoms: _290  and  _291
REMARK  128  A    between atoms: _291  and  _292
REMARK  129  A    between atoms: _294  and  _296
REMARK  130  A    between atoms: _296  and  _297
REMARK  131  A    between atoms: _296  and  _299
REMARK  132  A    between atoms: _299  and  _300
REMARK  133  A    between atoms: _300  and  _301
REMARK  134  A    between atoms: _304  and  _306
REMARK  135  A    between atoms: _306  and  _307
REMARK  136  A    between atoms: _306  and  _309
REMARK  137  A    between atoms: _309  and  _310
REMARK  138  A    between atoms: _316  and  _318
REMARK  139  A    between atoms: _318  and  _319
REMARK  140  A    between atoms: _318  and  _321
REMARK  141  A    between atoms: _321  and  _322
REMARK  142  A    between atoms: _325  and  _327
REMARK  143  A    between atoms: _327  and  _328
REMARK  144  A    between atoms: _327  and  _330
REMARK  145  A    between atoms: _330  and  _331
REMARK  146  A    between atoms: _331  and  _332
REMARK  147  A    between atoms: _335  and  _337
REMARK  148  A    between atoms: _337  and  _338
REMARK  149  A    between atoms: _340  and  _342
REMARK  150  A    between atoms: _342  and  _343
REMARK  151  A    between atoms: _345  and  _347
REMARK  152  A    between atoms: _347  and  _348
REMARK  153  A    between atoms: _351  and  _353
REMARK  154  A    between atoms: _353  and  _354
REMARK  155  A    between atoms: _353  and  _356
REMARK  156  A    between atoms: _356  and  _357
REMARK  157  A    between atoms: _360  and  _362
REMARK  158  A    between atoms: _362  and  _363
REMARK  159  A    between atoms: _362  and  _365
REMARK  160  A    between atoms: _365  and  _366
REMARK  161  A    between atoms: _369  and  _371
REMARK  162  A    between atoms: _371  and  _372
REMARK  163  A    between atoms: _371  and  _374
REMARK  164  A    between atoms: _374  and  _375
REMARK  165  A    between atoms: _378  and  _380
REMARK  166  A    between atoms: _380  and  _381
REMARK  167  A    between atoms: _380  and  _383
REMARK  168  A    between atoms: _383  and  _384
REMARK  169  A    between atoms: _389  and  _391
REMARK  170  A    between atoms: _391  and  _392
REMARK  171  A    between atoms: _391  and  _394
REMARK  172  A    between atoms: _394  and  _395
REMARK  173  A    between atoms: _397  and  _399
REMARK  174  A    between atoms: _399  and  _400
REMARK  175  A    between atoms: _399  and  _402
REMARK  176  A    between atoms: _402  and  _403
REMARK  177  A    between atoms: _406  and  _408
REMARK  178  A    between atoms: _408  and  _409
REMARK  179  A    between atoms: _408  and  _411
REMARK  180  A    between atoms: _411  and  _412
REMARK  181  A    between atoms: _414  and  _416
REMARK  182  A    between atoms: _416  and  _417
REMARK  183  A    between atoms: _416  and  _419
REMARK  184  A    between atoms: _419  and  _420
REMARK  185  A    between atoms: _423  and  _425
REMARK  186  A    between atoms: _425  and  _426
REMARK  187  A    between atoms: _425  and  _428
REMARK  188  A    between atoms: _428  and  _429
REMARK  189  A    between atoms: _432  and  _434
REMARK  190  A    between atoms: _434  and  _435
REMARK  191  A    between atoms: _434  and  _437
REMARK  192  A    between atoms: _437  and  _438
REMARK  193  A    between atoms: _441  and  _443
REMARK  194  A    between atoms: _443  and  _444
REMARK  195  A    between atoms: _443  and  _446
REMARK  196  A    between atoms: _446  and  _447
REMARK  197  A    between atoms: _450  and  _452
REMARK  198  A    between atoms: _452  and  _453
REMARK  199  A    between atoms: _452  and  _455
REMARK  200  A    between atoms: _455  and  _456
REMARK  201  A    between atoms: _458  and  _460
REMARK  202  A    between atoms: _460  and  _461
REMARK  203  A    between atoms: _460  and  _463
REMARK  204  A    between atoms: _463  and  _464
REMARK  205  A    between atoms: _467  and  _469
REMARK  206  A    between atoms: _469  and  _470
REMARK  207  A    between atoms: _469  and  _472
REMARK  208  A    between atoms: _472  and  _473
REMARK  209  A    between atoms: _479  and  _481
REMARK  210  A    between atoms: _481  and  _482
REMARK  211  A    between atoms: _484  and  _486
REMARK  212  A    between atoms: _486  and  _487
REMARK  213  A    between atoms: _486  and  _489
REMARK  214  A    between atoms: _489  and  _490
REMARK  215  A    between atoms: _496  and  _498
REMARK  216  A    between atoms: _498  and  _499
REMARK  217  A    between atoms: _498  and  _501
REMARK                            x       y       z     vdW  Elec       q    Type
REMARK                         _______ _______ _______ _____ _____    ______ ____
ROOT
ATOM      1  O   HOH     1      15.696 -33.738  11.448  0.00  0.00    +0.000 OA
ENDROOT
TORSDOF 0
REMARK  Name = ../refined-set-2016/4o0y/4o0y_pocket.pdb
REMARK  217 active torsions:
REMARK  status: ('A' for Active; 'I' for Inactive)
REMARK    1  A    between atoms: _1  and  _3
REMARK    2  A    between atoms: _3  and  _4
REMARK    3  A    between atoms: _3  and  _6
REMARK    4  A    between atoms: _6  and  _7
REMARK    5  A    between atoms: _7  and  _8
REMARK    6  A    between atoms: _8  and  _9
REMARK    7  A    between atoms: _9  and  _10
REMARK    8  A    between atoms: _14  and  _16
REMARK    9  A    between atoms: _16  and  _17
REMARK   10  A    between atoms: _16  and  _19
REMARK   11  A    between atoms: _19  and  _20
REMARK   12  A    between atoms: _23  and  _25
REMARK   13  A    between atoms: _25  and  _26
REMARK   14  A    between atoms: _28  and  _30
REMARK   15  A    between atoms: _30  and  _31
REMARK   16  A    between atoms: _30  and  _33
REMARK   17  A    between atoms: _33  and  _34
REMARK   18  A    between atoms: _34  and  _35
REMARK   19  A    between atoms: _38  and  _40
REMARK   20  A    between atoms: _40  and  _41
REMARK   21  A    between atoms: _43  and  _45
REMARK   22  A    between atoms: _45  and  _46
REMARK   23  A    between atoms: _45  and  _48
REMARK   24  A    between atoms: _48  and  _49
REMARK   25  A    between atoms: _51  and  _53
REMARK   26  A    between atoms: _53  and  _54
REMARK   27  A    between atoms: _53  and  _56
REMARK   28  A    between atoms: _56  and  _57
REMARK   29  A    between atoms: _60  and  _62
REMARK   30  A    between atoms: _62  and  _63
REMARK   31  A    between atoms: _65  and  _67
REMARK   32  A    between atoms: _67  and  _68
REMARK   33  A    between atoms: _67  and  _70
REMARK   34  A    between atoms: _70  and  _71
REMARK   35  A    between atoms: _74  and  _76
REMARK   36  A    between atoms: _76  and  _77
REMARK   37  A    between atoms: _76  and  _79
REMARK   38  A    between atoms: _82  and  _84
REMARK   39  A    between atoms: _84  and  _85
REMARK   40  A    between atoms: _84  and  _87
REMARK   41  A    between atoms: _89  and  _91
REMARK   42  A    between atoms: _91  and  _92
REMARK   43  A    between atoms: _91  and  _94
REMARK   44  A    between atoms: _94  and  _95
REMARK   45  A    between atoms: _98  and  _100
REMARK   46  A    between atoms: _100  and  _101
REMARK   47  A    between atoms: _100  and  _103
REMARK   48  A    between atoms: _106  and  _108
REMARK   49  A    between atoms: _108  and  _109
REMARK   50  A    between atoms: _112  and  _114
REMARK   51  A    between atoms: _114  and  _115
REMARK   52  A    between atoms: _114  and  _117
REMARK   53  A    between atoms: _120  and  _122
REMARK   54  A    between atoms: _122  and  _123
REMARK   55  A    between atoms: _122  and  _125
REMARK   56  A    between atoms: _125  and  _126
REMARK   57  A    between atoms: _126  and  _127
REMARK   58  A    between atoms: _127  and  _128
REMARK   59  A    between atoms: _128  and  _129
REMARK   60  A    between atoms: _133  and  _135
REMARK   61  A    between atoms: _135  and  _136
REMARK   62  A    between atoms: _135  and  _138
REMARK   63  A    between atoms: _138  and  _139
REMARK   64  A    between atoms: _139  and  _140
REMARK   65  A    between atoms: _140  and  _141
REMARK   66  A    between atoms: _141  and  _142
REMARK   67  A    between atoms: _146  and  _148
REMARK   68  A    between atoms: _148  and  _149
REMARK   69  A    between atoms: _148  and  _151
REMARK   70  A    between atoms: _151  and  _152
REMARK   71  A    between atoms: _152  and  _153
REMARK   72  A    between atoms: _155  and  _157
REMARK   73  A    between atoms: _157  and  _158
REMARK   74  A    between atoms: _157  and  _160
REMARK   75  A    between atoms: _160  and  _161
REMARK   76  A    between atoms: _166  and  _168
REMARK   77  A    between atoms: _168  and  _169
REMARK   78  A    between atoms: _168  and  _171
REMARK   79  A    between atoms: _171  and  _172
REMARK   80  A    between atoms: _172  and  _173
REMARK   81  A    between atoms: _176  and  _178
REMARK   82  A    between atoms: _178  and  _179
REMARK   83  A    between atoms: _178  and  _181
REMARK   84  A    between atoms: _184  and  _186
REMARK   85  A    between atoms: _186  and  _187
REMARK   86  A    between atoms: _186  and  _189
REMARK   87  A    between atoms: _189  and  _190
REMARK   88  A    between atoms: _190  and  _191
REMARK   89  A    between atoms: _193  and  _195
REMARK   90  A    between atoms: _195  and  _196
REMARK   91  A    between atoms: _195  and  _198
REMARK   92  A    between atoms: _201  and  _203
REMARK   93  A    between atoms: _203  and  _204
REMARK   94  A    between atoms: _203  and  _206
REMARK   95  A    between atoms: _209  and  _211
REMARK   96  A    between atoms: _211  and  _212
REMARK   97  A    between atoms: _211  and  _214
REMARK   98  A    between atoms: _214  and  _215
REMARK   99  A    between atoms: _215  and  _216
REMARK  100  A    between atoms: _219  and  _221
REMARK  101  A    between atoms: _221  and  _222
REMARK  102  A    between atoms: _221  and  _224
REMARK  103  A    between atoms: _224  and  _225
REMARK  104  A    between atoms: _225  and  _226
REMARK  105  A    between atoms: _228  and  _230
REMARK  106  A    between atoms: _230  and  _231
REMARK  107  A    between atoms: _230  and  _233
REMARK  108  A    between atoms: _233  and  _234
REMARK  109  A    between atoms: _239  and  _240
REMARK  110  A    between atoms: _242  and  _244
REMARK  111  A    between atoms: _244  and  _245
REMARK  112  A    between atoms: _244  and  _247
REMARK  113  A    between atoms: _247  and  _248
REMARK  114  A    between atoms: _253  and  _255
REMARK  115  A    between atoms: _255  and  _256
REMARK  116  A    between atoms: _255  and  _258
REMARK  117  A    between atoms: _258  and  _259
REMARK  118  A    between atoms: _269  and  _271
REMARK  119  A    between atoms: _271  and  _272
REMARK  120  A    between atoms: _271  and  _274
REMARK  121  A    between atoms: _277  and  _279
REMARK  122  A    between atoms: _279  and  _280
REMARK  123  A    between atoms: _279  and  _282
REMARK  124  A    between atoms: _285  and  _287
REMARK  125  A    between atoms: _287  and  _288
REMARK  126  A    between atoms: _287  and  _290
REMARK  127  A    between atoms: _290  and  _291
REMARK  128  A    between atoms: _291  and  _292
REMARK  129  A    between atoms: _294  and  _296
REMARK  130  A    between atoms: _296  and  _297
REMARK  131  A    between atoms: _296  and  _299
REMARK  132  A    between atoms: _299  and  _300
REMARK  133  A    between atoms: _300  and  _301
REMARK  134  A    between atoms: _304  and  _306
REMARK  135  A    between atoms: _306  and  _307
REMARK  136  A    between atoms: _306  and  _309
REMARK  137  A    between atoms: _309  and  _310
REMARK  138  A    between atoms: _316  and  _318
REMARK  139  A    between atoms: _318  and  _319
REMARK  140  A    between atoms: _318  and  _321
REMARK  141  A    between atoms: _321  and  _322
REMARK  142  A    between atoms: _325  and  _327
REMARK  143  A    between atoms: _327  and  _328
REMARK  144  A    between atoms: _327  and  _330
REMARK  145  A    between atoms: _330  and  _331
REMARK  146  A    between atoms: _331  and  _332
REMARK  147  A    between atoms: _335  and  _337
REMARK  148  A    between atoms: _337  and  _338
REMARK  149  A    between atoms: _340  and  _342
REMARK  150  A    between atoms: _342  and  _343
REMARK  151  A    between atoms: _345  and  _347
REMARK  152  A    between atoms: _347  and  _348
REMARK  153  A    between atoms: _351  and  _353
REMARK  154  A    between atoms: _353  and  _354
REMARK  155  A    between atoms: _353  and  _356
REMARK  156  A    between atoms: _356  and  _357
REMARK  157  A    between atoms: _360  and  _362
REMARK  158  A    between atoms: _362  and  _363
REMARK  159  A    between atoms: _362  and  _365
REMARK  160  A    between atoms: _365  and  _366
REMARK  161  A    between atoms: _369  and  _371
REMARK  162  A    between atoms: _371  and  _372
REMARK  163  A    between atoms: _371  and  _374
REMARK  164  A    between atoms: _374  and  _375
REMARK  165  A    between atoms: _378  and  _380
REMARK  166  A    between atoms: _380  and  _381
REMARK  167  A    between atoms: _380  and  _383
REMARK  168  A    between atoms: _383  and  _384
REMARK  169  A    between atoms: _389  and  _391
REMARK  170  A    between atoms: _391  and  _392
REMARK  171  A    between atoms: _391  and  _394
REMARK  172  A    between atoms: _394  and  _395
REMARK  173  A    between atoms: _397  and  _399
REMARK  174  A    between atoms: _399  and  _400
REMARK  175  A    between atoms: _399  and  _402
REMARK  176  A    between atoms: _402  and  _403
REMARK  177  A    between atoms: _406  and  _408
REMARK  178  A    between atoms: _408  and  _409
REMARK  179  A    between atoms: _408  and  _411
REMARK  180  A    between atoms: _411  and  _412
REMARK  181  A    between atoms: _414  and  _416
REMARK  182  A    between atoms: _416  and  _417
REMARK  183  A    between atoms: _416  and  _419
REMARK  184  A    between atoms: _419  and  _420
REMARK  185  A    between atoms: _423  and  _425
REMARK  186  A    between atoms: _425  and  _426
REMARK  187  A    between atoms: _425  and  _428
REMARK  188  A    between atoms: _428  and  _429
REMARK  189  A    between atoms: _432  and  _434
REMARK  190  A    between atoms: _434  and  _435
REMARK  191  A    between atoms: _434  and  _437
REMARK  192  A    between atoms: _437  and  _438
REMARK  193  A    between atoms: _441  and  _443
REMARK  194  A    between atoms: _443  and  _444
REMARK  195  A    between atoms: _443  and  _446
REMARK  196  A    between atoms: _446  and  _447
REMARK  197  A    between atoms: _450  and  _452
REMARK  198  A    between atoms: _452  and  _453
REMARK  199  A    between atoms: _452  and  _455
REMARK  200  A    between atoms: _455  and  _456
REMARK  201  A    between atoms: _458  and  _460
REMARK  202  A    between atoms: _460  and  _461
REMARK  203  A    between atoms: _460  and  _463
REMARK  204  A    between atoms: _463  and  _464
REMARK  205  A    between atoms: _467  and  _469
REMARK  206  A    between atoms: _469  and  _470
REMARK  207  A    between atoms: _469  and  _472
REMARK  208  A    between atoms: _472  and  _473
REMARK  209  A    between atoms: _479  and  _481
REMARK  210  A    between atoms: _481  and  _482
REMARK  211  A    between atoms: _484  and  _486
REMARK  212  A    between atoms: _486  and  _487
REMARK  213  A    between atoms: _486  and  _489
REMARK  214  A    between atoms: _489  and  _490
REMARK  215  A    between atoms: _496  and  _498
REMARK  216  A    between atoms: _498  and  _499
REMARK  217  A    between atoms: _498  and  _501
REMARK                            x       y       z     vdW  Elec       q    Type
REMARK                         _______ _______ _______ _____ _____    ______ ____
ROOT
ATOM      1  O   HOH     1      12.881 -33.561   9.453  0.00  0.00    +0.000 OA
ENDROOT
TORSDOF 0
REMARK  Name = ../refined-set-2016/4o0y/4o0y_pocket.pdb
REMARK  217 active torsions:
REMARK  status: ('A' for Active; 'I' for Inactive)
REMARK    1  A    between atoms: _1  and  _3
REMARK    2  A    between atoms: _3  and  _4
REMARK    3  A    between atoms: _3  and  _6
REMARK    4  A    between atoms: _6  and  _7
REMARK    5  A    between atoms: _7  and  _8
REMARK    6  A    between atoms: _8  and  _9
REMARK    7  A    between atoms: _9  and  _10
REMARK    8  A    between atoms: _14  and  _16
REMARK    9  A    between atoms: _16  and  _17
REMARK   10  A    between atoms: _16  and  _19
REMARK   11  A    between atoms: _19  and  _20
REMARK   12  A    between atoms: _23  and  _25
REMARK   13  A    between atoms: _25  and  _26
REMARK   14  A    between atoms: _28  and  _30
REMARK   15  A    between atoms: _30  and  _31
REMARK   16  A    between atoms: _30  and  _33
REMARK   17  A    between atoms: _33  and  _34
REMARK   18  A    between atoms: _34  and  _35
REMARK   19  A    between atoms: _38  and  _40
REMARK   20  A    between atoms: _40  and  _41
REMARK   21  A    between atoms: _43  and  _45
REMARK   22  A    between atoms: _45  and  _46
REMARK   23  A    between atoms: _45  and  _48
REMARK   24  A    between atoms: _48  and  _49
REMARK   25  A    between atoms: _51  and  _53
REMARK   26  A    between atoms: _53  and  _54
REMARK   27  A    between atoms: _53  and  _56
REMARK   28  A    between atoms: _56  and  _57
REMARK   29  A    between atoms: _60  and  _62
REMARK   30  A    between atoms: _62  and  _63
REMARK   31  A    between atoms: _65  and  _67
REMARK   32  A    between atoms: _67  and  _68
REMARK   33  A    between atoms: _67  and  _70
REMARK   34  A    between atoms: _70  and  _71
REMARK   35  A    between atoms: _74  and  _76
REMARK   36  A    between atoms: _76  and  _77
REMARK   37  A    between atoms: _76  and  _79
REMARK   38  A    between atoms: _82  and  _84
REMARK   39  A    between atoms: _84  and  _85
REMARK   40  A    between atoms: _84  and  _87
REMARK   41  A    between atoms: _89  and  _91
REMARK   42  A    between atoms: _91  and  _92
REMARK   43  A    between atoms: _91  and  _94
REMARK   44  A    between atoms: _94  and  _95
REMARK   45  A    between atoms: _98  and  _100
REMARK   46  A    between atoms: _100  and  _101
REMARK   47  A    between atoms: _100  and  _103
REMARK   48  A    between atoms: _106  and  _108
REMARK   49  A    between atoms: _108  and  _109
REMARK   50  A    between atoms: _112  and  _114
REMARK   51  A    between atoms: _114  and  _115
REMARK   52  A    between atoms: _114  and  _117
REMARK   53  A    between atoms: _120  and  _122
REMARK   54  A    between atoms: _122  and  _123
REMARK   55  A    between atoms: _122  and  _125
REMARK   56  A    between atoms: _125  and  _126
REMARK   57  A    between atoms: _126  and  _127
REMARK   58  A    between atoms: _127  and  _128
REMARK   59  A    between atoms: _128  and  _129
REMARK   60  A    between atoms: _133  and  _135
REMARK   61  A    between atoms: _135  and  _136
REMARK   62  A    between atoms: _135  and  _138
REMARK   63  A    between atoms: _138  and  _139
REMARK   64  A    between atoms: _139  and  _140
REMARK   65  A    between atoms: _140  and  _141
REMARK   66  A    between atoms: _141  and  _142
REMARK   67  A    between atoms: _146  and  _148
REMARK   68  A    between atoms: _148  and  _149
REMARK   69  A    between atoms: _148  and  _151
REMARK   70  A    between atoms: _151  and  _152
REMARK   71  A    between atoms: _152  and  _153
REMARK   72  A    between atoms: _155  and  _157
REMARK   73  A    between atoms: _157  and  _158
REMARK   74  A    between atoms: _157  and  _160
REMARK   75  A    between atoms: _160  and  _161
REMARK   76  A    between atoms: _166  and  _168
REMARK   77  A    between atoms: _168  and  _169
REMARK   78  A    between atoms: _168  and  _171
REMARK   79  A    between atoms: _171  and  _172
REMARK   80  A    between atoms: _172  and  _173
REMARK   81  A    between atoms: _176  and  _178
REMARK   82  A    between atoms: _178  and  _179
REMARK   83  A    between atoms: _178  and  _181
REMARK   84  A    between atoms: _184  and  _186
REMARK   85  A    between atoms: _186  and  _187
REMARK   86  A    between atoms: _186  and  _189
REMARK   87  A    between atoms: _189  and  _190
REMARK   88  A    between atoms: _190  and  _191
REMARK   89  A    between atoms: _193  and  _195
REMARK   90  A    between atoms: _195  and  _196
REMARK   91  A    between atoms: _195  and  _198
REMARK   92  A    between atoms: _201  and  _203
REMARK   93  A    between atoms: _203  and  _204
REMARK   94  A    between atoms: _203  and  _206
REMARK   95  A    between atoms: _209  and  _211
REMARK   96  A    between atoms: _211  and  _212
REMARK   97  A    between atoms: _211  and  _214
REMARK   98  A    between atoms: _214  and  _215
REMARK   99  A    between atoms: _215  and  _216
REMARK  100  A    between atoms: _219  and  _221
REMARK  101  A    between atoms: _221  and  _222
REMARK  102  A    between atoms: _221  and  _224
REMARK  103  A    between atoms: _224  and  _225
REMARK  104  A    between atoms: _225  and  _226
REMARK  105  A    between atoms: _228  and  _230
REMARK  106  A    between atoms: _230  and  _231
REMARK  107  A    between atoms: _230  and  _233
REMARK  108  A    between atoms: _233  and  _234
REMARK  109  A    between atoms: _239  and  _240
REMARK  110  A    between atoms: _242  and  _244
REMARK  111  A    between atoms: _244  and  _245
REMARK  112  A    between atoms: _244  and  _247
REMARK  113  A    between atoms: _247  and  _248
REMARK  114  A    between atoms: _253  and  _255
REMARK  115  A    between atoms: _255  and  _256
REMARK  116  A    between atoms: _255  and  _258
REMARK  117  A    between atoms: _258  and  _259
REMARK  118  A    between atoms: _269  and  _271
REMARK  119  A    between atoms: _271  and  _272
REMARK  120  A    between atoms: _271  and  _274
REMARK  121  A    between atoms: _277  and  _279
REMARK  122  A    between atoms: _279  and  _280
REMARK  123  A    between atoms: _279  and  _282
REMARK  124  A    between atoms: _285  and  _287
REMARK  125  A    between atoms: _287  and  _288
REMARK  126  A    between atoms: _287  and  _290
REMARK  127  A    between atoms: _290  and  _291
REMARK  128  A    between atoms: _291  and  _292
REMARK  129  A    between atoms: _294  and  _296
REMARK  130  A    between atoms: _296  and  _297
REMARK  131  A    between atoms: _296  and  _299
REMARK  132  A    between atoms: _299  and  _300
REMARK  133  A    between atoms: _300  and  _301
REMARK  134  A    between atoms: _304  and  _306
REMARK  135  A    between atoms: _306  and  _307
REMARK  136  A    between atoms: _306  and  _309
REMARK  137  A    between atoms: _309  and  _310
REMARK  138  A    between atoms: _316  and  _318
REMARK  139  A    between atoms: _318  and  _319
REMARK  140  A    between atoms: _318  and  _321
REMARK  141  A    between atoms: _321  and  _322
REMARK  142  A    between atoms: _325  and  _327
REMARK  143  A    between atoms: _327  and  _328
REMARK  144  A    between atoms: _327  and  _330
REMARK  145  A    between atoms: _330  and  _331
REMARK  146  A    between atoms: _331  and  _332
REMARK  147  A    between atoms: _335  and  _337
REMARK  148  A    between atoms: _337  and  _338
REMARK  149  A    between atoms: _340  and  _342
REMARK  150  A    between atoms: _342  and  _343
REMARK  151  A    between atoms: _345  and  _347
REMARK  152  A    between atoms: _347  and  _348
REMARK  153  A    between atoms: _351  and  _353
REMARK  154  A    between atoms: _353  and  _354
REMARK  155  A    between atoms: _353  and  _356
REMARK  156  A    between atoms: _356  and  _357
REMARK  157  A    between atoms: _360  and  _362
REMARK  158  A    between atoms: _362  and  _363
REMARK  159  A    between atoms: _362  and  _365
REMARK  160  A    between atoms: _365  and  _366
REMARK  161  A    between atoms: _369  and  _371
REMARK  162  A    between atoms: _371  and  _372
REMARK  163  A    between atoms: _371  and  _374
REMARK  164  A    between atoms: _374  and  _375
REMARK  165  A    between atoms: _378  and  _380
REMARK  166  A    between atoms: _380  and  _381
REMARK  167  A    between atoms: _380  and  _383
REMARK  168  A    between atoms: _383  and  _384
REMARK  169  A    between atoms: _389  and  _391
REMARK  170  A    between atoms: _391  and  _392
REMARK  171  A    between atoms: _391  and  _394
REMARK  172  A    between atoms: _394  and  _395
REMARK  173  A    between atoms: _397  and  _399
REMARK  174  A    between atoms: _399  and  _400
REMARK  175  A    between atoms: _399  and  _402
REMARK  176  A    between atoms: _402  and  _403
REMARK  177  A    between atoms: _406  and  _408
REMARK  178  A    between atoms: _408  and  _409
REMARK  179  A    between atoms: _408  and  _411
REMARK  180  A    between atoms: _411  and  _412
REMARK  181  A    between atoms: _414  and  _416
REMARK  182  A    between atoms: _416  and  _417
REMARK  183  A    between atoms: _416  and  _419
REMARK  184  A    between atoms: _419  and  _420
REMARK  185  A    between atoms: _423  and  _425
REMARK  186  A    between atoms: _425  and  _426
REMARK  187  A    between atoms: _425  and  _428
REMARK  188  A    between atoms: _428  and  _429
REMARK  189  A    between atoms: _432  and  _434
REMARK  190  A    between atoms: _434  and  _435
REMARK  191  A    between atoms: _434  and  _437
REMARK  192  A    between atoms: _437  and  _438
REMARK  193  A    between atoms: _441  and  _443
REMARK  194  A    between atoms: _443  and  _444
REMARK  195  A    between atoms: _443  and  _446
REMARK  196  A    between atoms: _446  and  _447
REMARK  197  A    between atoms: _450  and  _452
REMARK  198  A    between atoms: _452  and  _453
REMARK  199  A    between atoms: _452  and  _455
REMARK  200  A    between atoms: _455  and  _456
REMARK  201  A    between atoms: _458  and  _460
REMARK  202  A    between atoms: _460  and  _461
REMARK  203  A    between atoms: _460  and  _463
REMARK  204  A    between atoms: _463  and  _464
REMARK  205  A    between atoms: _467  and  _469
REMARK  206  A    between atoms: _469  and  _470
REMARK  207  A    between atoms: _469  and  _472
REMARK  208  A    between atoms: _472  and  _473
REMARK  209  A    between atoms: _479  and  _481
REMARK  210  A    between atoms: _481  and  _482
REMARK  211  A    between atoms: _484  and  _486
REMARK  212  A    between atoms: _486  and  _487
REMARK  213  A    between atoms: _486  and  _489
REMARK  214  A    between atoms: _489  and  _490
REMARK  215  A    between atoms: _496  and  _498
REMARK  216  A    between atoms: _498  and  _499
REMARK  217  A    between atoms: _498  and  _501
REMARK                            x       y       z     vdW  Elec       q    Type
REMARK                         _______ _______ _______ _____ _____    ______ ____
ROOT
ATOM      1  O   HOH     1      14.996 -31.858   9.607  0.00  0.00    +0.000 OA
ENDROOT
TORSDOF 0
REMARK  Name = ../refined-set-2016/4o0y/4o0y_pocket.pdb
REMARK  217 active torsions:
REMARK  status: ('A' for Active; 'I' for Inactive)
REMARK    1  A    between atoms: _1  and  _3
REMARK    2  A    between atoms: _3  and  _4
REMARK    3  A    between atoms: _3  and  _6
REMARK    4  A    between atoms: _6  and  _7
REMARK    5  A    between atoms: _7  and  _8
REMARK    6  A    between atoms: _8  and  _9
REMARK    7  A    between atoms: _9  and  _10
REMARK    8  A    between atoms: _14  and  _16
REMARK    9  A    between atoms: _16  and  _17
REMARK   10  A    between atoms: _16  and  _19
REMARK   11  A    between atoms: _19  and  _20
REMARK   12  A    between atoms: _23  and  _25
REMARK   13  A    between atoms: _25  and  _26
REMARK   14  A    between atoms: _28  and  _30
REMARK   15  A    between atoms: _30  and  _31
REMARK   16  A    between atoms: _30  and  _33
REMARK   17  A    between atoms: _33  and  _34
REMARK   18  A    between atoms: _34  and  _35
REMARK   19  A    between atoms: _38  and  _40
REMARK   20  A    between atoms: _40  and  _41
REMARK   21  A    between atoms: _43  and  _45
REMARK   22  A    between atoms: _45  and  _46
REMARK   23  A    between atoms: _45  and  _48
REMARK   24  A    between atoms: _48  and  _49
REMARK   25  A    between atoms: _51  and  _53
REMARK   26  A    between atoms: _53  and  _54
REMARK   27  A    between atoms: _53  and  _56
REMARK   28  A    between atoms: _56  and  _57
REMARK   29  A    between atoms: _60  and  _62
REMARK   30  A    between atoms: _62  and  _63
REMARK   31  A    between atoms: _65  and  _67
REMARK   32  A    between atoms: _67  and  _68
REMARK   33  A    between atoms: _67  and  _70
REMARK   34  A    between atoms: _70  and  _71
REMARK   35  A    between atoms: _74  and  _76
REMARK   36  A    between atoms: _76  and  _77
REMARK   37  A    between atoms: _76  and  _79
REMARK   38  A    between atoms: _82  and  _84
REMARK   39  A    between atoms: _84  and  _85
REMARK   40  A    between atoms: _84  and  _87
REMARK   41  A    between atoms: _89  and  _91
REMARK   42  A    between atoms: _91  and  _92
REMARK   43  A    between atoms: _91  and  _94
REMARK   44  A    between atoms: _94  and  _95
REMARK   45  A    between atoms: _98  and  _100
REMARK   46  A    between atoms: _100  and  _101
REMARK   47  A    between atoms: _100  and  _103
REMARK   48  A    between atoms: _106  and  _108
REMARK   49  A    between atoms: _108  and  _109
REMARK   50  A    between atoms: _112  and  _114
REMARK   51  A    between atoms: _114  and  _115
REMARK   52  A    between atoms: _114  and  _117
REMARK   53  A    between atoms: _120  and  _122
REMARK   54  A    between atoms: _122  and  _123
REMARK   55  A    between atoms: _122  and  _125
REMARK   56  A    between atoms: _125  and  _126
REMARK   57  A    between atoms: _126  and  _127
REMARK   58  A    between atoms: _127  and  _128
REMARK   59  A    between atoms: _128  and  _129
REMARK   60  A    between atoms: _133  and  _135
REMARK   61  A    between atoms: _135  and  _136
REMARK   62  A    between atoms: _135  and  _138
REMARK   63  A    between atoms: _138  and  _139
REMARK   64  A    between atoms: _139  and  _140
REMARK   65  A    between atoms: _140  and  _141
REMARK   66  A    between atoms: _141  and  _142
REMARK   67  A    between atoms: _146  and  _148
REMARK   68  A    between atoms: _148  and  _149
REMARK   69  A    between atoms: _148  and  _151
REMARK   70  A    between atoms: _151  and  _152
REMARK   71  A    between atoms: _152  and  _153
REMARK   72  A    between atoms: _155  and  _157
REMARK   73  A    between atoms: _157  and  _158
REMARK   74  A    between atoms: _157  and  _160
REMARK   75  A    between atoms: _160  and  _161
REMARK   76  A    between atoms: _166  and  _168
REMARK   77  A    between atoms: _168  and  _169
REMARK   78  A    between atoms: _168  and  _171
REMARK   79  A    between atoms: _171  and  _172
REMARK   80  A    between atoms: _172  and  _173
REMARK   81  A    between atoms: _176  and  _178
REMARK   82  A    between atoms: _178  and  _179
REMARK   83  A    between atoms: _178  and  _181
REMARK   84  A    between atoms: _184  and  _186
REMARK   85  A    between atoms: _186  and  _187
REMARK   86  A    between atoms: _186  and  _189
REMARK   87  A    between atoms: _189  and  _190
REMARK   88  A    between atoms: _190  and  _191
REMARK   89  A    between atoms: _193  and  _195
REMARK   90  A    between atoms: _195  and  _196
REMARK   91  A    between atoms: _195  and  _198
REMARK   92  A    between atoms: _201  and  _203
REMARK   93  A    between atoms: _203  and  _204
REMARK   94  A    between atoms: _203  and  _206
REMARK   95  A    between atoms: _209  and  _211
REMARK   96  A    between atoms: _211  and  _212
REMARK   97  A    between atoms: _211  and  _214
REMARK   98  A    between atoms: _214  and  _215
REMARK   99  A    between atoms: _215  and  _216
REMARK  100  A    between atoms: _219  and  _221
REMARK  101  A    between atoms: _221  and  _222
REMARK  102  A    between atoms: _221  and  _224
REMARK  103  A    between atoms: _224  and  _225
REMARK  104  A    between atoms: _225  and  _226
REMARK  105  A    between atoms: _228  and  _230
REMARK  106  A    between atoms: _230  and  _231
REMARK  107  A    between atoms: _230  and  _233
REMARK  108  A    between atoms: _233  and  _234
REMARK  109  A    between atoms: _239  and  _240
REMARK  110  A    between atoms: _242  and  _244
REMARK  111  A    between atoms: _244  and  _245
REMARK  112  A    between atoms: _244  and  _247
REMARK  113  A    between atoms: _247  and  _248
REMARK  114  A    between atoms: _253  and  _255
REMARK  115  A    between atoms: _255  and  _256
REMARK  116  A    between atoms: _255  and  _258
REMARK  117  A    between atoms: _258  and  _259
REMARK  118  A    between atoms: _269  and  _271
REMARK  119  A    between atoms: _271  and  _272
REMARK  120  A    between atoms: _271  and  _274
REMARK  121  A    between atoms: _277  and  _279
REMARK  122  A    between atoms: _279  and  _280
REMARK  123  A    between atoms: _279  and  _282
REMARK  124  A    between atoms: _285  and  _287
REMARK  125  A    between atoms: _287  and  _288
REMARK  126  A    between atoms: _287  and  _290
REMARK  127  A    between atoms: _290  and  _291
REMARK  128  A    between atoms: _291  and  _292
REMARK  129  A    between atoms: _294  and  _296
REMARK  130  A    between atoms: _296  and  _297
REMARK  131  A    between atoms: _296  and  _299
REMARK  132  A    between atoms: _299  and  _300
REMARK  133  A    between atoms: _300  and  _301
REMARK  134  A    between atoms: _304  and  _306
REMARK  135  A    between atoms: _306  and  _307
REMARK  136  A    between atoms: _306  and  _309
REMARK  137  A    between atoms: _309  and  _310
REMARK  138  A    between atoms: _316  and  _318
REMARK  139  A    between atoms: _318  and  _319
REMARK  140  A    between atoms: _318  and  _321
REMARK  141  A    between atoms: _321  and  _322
REMARK  142  A    between atoms: _325  and  _327
REMARK  143  A    between atoms: _327  and  _328
REMARK  144  A    between atoms: _327  and  _330
REMARK  145  A    between atoms: _330  and  _331
REMARK  146  A    between atoms: _331  and  _332
REMARK  147  A    between atoms: _335  and  _337
REMARK  148  A    between atoms: _337  and  _338
REMARK  149  A    between atoms: _340  and  _342
REMARK  150  A    between atoms: _342  and  _343
REMARK  151  A    between atoms: _345  and  _347
REMARK  152  A    between atoms: _347  and  _348
REMARK  153  A    between atoms: _351  and  _353
REMARK  154  A    between atoms: _353  and  _354
REMARK  155  A    between atoms: _353  and  _356
REMARK  156  A    between atoms: _356  and  _357
REMARK  157  A    between atoms: _360  and  _362
REMARK  158  A    between atoms: _362  and  _363
REMARK  159  A    between atoms: _362  and  _365
REMARK  160  A    between atoms: _365  and  _366
REMARK  161  A    between atoms: _369  and  _371
REMARK  162  A    between atoms: _371  and  _372
REMARK  163  A    between atoms: _371  and  _374
REMARK  164  A    between atoms: _374  and  _375
REMARK  165  A    between atoms: _378  and  _380
REMARK  166  A    between atoms: _380  and  _381
REMARK  167  A    between atoms: _380  and  _383
REMARK  168  A    between atoms: _383  and  _384
REMARK  169  A    between atoms: _389  and  _391
REMARK  170  A    between atoms: _391  and  _392
REMARK  171  A    between atoms: _391  and  _394
REMARK  172  A    between atoms: _394  and  _395
REMARK  173  A    between atoms: _397  and  _399
REMARK  174  A    between atoms: _399  and  _400
REMARK  175  A    between atoms: _399  and  _402
REMARK  176  A    between atoms: _402  and  _403
REMARK  177  A    between atoms: _406  and  _408
REMARK  178  A    between atoms: _408  and  _409
REMARK  179  A    between atoms: _408  and  _411
REMARK  180  A    between atoms: _411  and  _412
REMARK  181  A    between atoms: _414  and  _416
REMARK  182  A    between atoms: _416  and  _417
REMARK  183  A    between atoms: _416  and  _419
REMARK  184  A    between atoms: _419  and  _420
REMARK  185  A    between atoms: _423  and  _425
REMARK  186  A    between atoms: _425  and  _426
REMARK  187  A    between atoms: _425  and  _428
REMARK  188  A    between atoms: _428  and  _429
REMARK  189  A    between atoms: _432  and  _434
REMARK  190  A    between atoms: _434  and  _435
REMARK  191  A    between atoms: _434  and  _437
REMARK  192  A    between atoms: _437  and  _438
REMARK  193  A    between atoms: _441  and  _443
REMARK  194  A    between atoms: _443  and  _444
REMARK  195  A    between atoms: _443  and  _446
REMARK  196  A    between atoms: _446  and  _447
REMARK  197  A    between atoms: _450  and  _452
REMARK  198  A    between atoms: _452  and  _453
REMARK  199  A    between atoms: _452  and  _455
REMARK  200  A    between atoms: _455  and  _456
REMARK  201  A    between atoms: _458  and  _460
REMARK  202  A    between atoms: _460  and  _461
REMARK  203  A    between atoms: _460  and  _463
REMARK  204  A    between atoms: _463  and  _464
REMARK  205  A    between atoms: _467  and  _469
REMARK  206  A    between atoms: _469  and  _470
REMARK  207  A    between atoms: _469  and  _472
REMARK  208  A    between atoms: _472  and  _473
REMARK  209  A    between atoms: _479  and  _481
REMARK  210  A    between atoms: _481  and  _482
REMARK  211  A    between atoms: _484  and  _486
REMARK  212  A    between atoms: _486  and  _487
REMARK  213  A    between atoms: _486  and  _489
REMARK  214  A    between atoms: _489  and  _490
REMARK  215  A    between atoms: _496  and  _498
REMARK  216  A    between atoms: _498  and  _499
REMARK  217  A    between atoms: _498  and  _501
REMARK                            x       y       z     vdW  Elec       q    Type
REMARK                         _______ _______ _______ _____ _____    ______ ____
ROOT
ATOM      1  O   HOH     1      18.707 -32.939   8.234  0.00  0.00    +0.000 OA
ENDROOT
TORSDOF 0
REMARK  Name = ../refined-set-2016/4o0y/4o0y_pocket.pdb
REMARK  217 active torsions:
REMARK  status: ('A' for Active; 'I' for Inactive)
REMARK    1  A    between atoms: _1  and  _3
REMARK    2  A    between atoms: _3  and  _4
REMARK    3  A    between atoms: _3  and  _6
REMARK    4  A    between atoms: _6  and  _7
REMARK    5  A    between atoms: _7  and  _8
REMARK    6  A    between atoms: _8  and  _9
REMARK    7  A    between atoms: _9  and  _10
REMARK    8  A    between atoms: _14  and  _16
REMARK    9  A    between atoms: _16  and  _17
REMARK   10  A    between atoms: _16  and  _19
REMARK   11  A    between atoms: _19  and  _20
REMARK   12  A    between atoms: _23  and  _25
REMARK   13  A    between atoms: _25  and  _26
REMARK   14  A    between atoms: _28  and  _30
REMARK   15  A    between atoms: _30  and  _31
REMARK   16  A    between atoms: _30  and  _33
REMARK   17  A    between atoms: _33  and  _34
REMARK   18  A    between atoms: _34  and  _35
REMARK   19  A    between atoms: _38  and  _40
REMARK   20  A    between atoms: _40  and  _41
REMARK   21  A    between atoms: _43  and  _45
REMARK   22  A    between atoms: _45  and  _46
REMARK   23  A    between atoms: _45  and  _48
REMARK   24  A    between atoms: _48  and  _49
REMARK   25  A    between atoms: _51  and  _53
REMARK   26  A    between atoms: _53  and  _54
REMARK   27  A    between atoms: _53  and  _56
REMARK   28  A    between atoms: _56  and  _57
REMARK   29  A    between atoms: _60  and  _62
REMARK   30  A    between atoms: _62  and  _63
REMARK   31  A    between atoms: _65  and  _67
REMARK   32  A    between atoms: _67  and  _68
REMARK   33  A    between atoms: _67  and  _70
REMARK   34  A    between atoms: _70  and  _71
REMARK   35  A    between atoms: _74  and  _76
REMARK   36  A    between atoms: _76  and  _77
REMARK   37  A    between atoms: _76  and  _79
REMARK   38  A    between atoms: _82  and  _84
REMARK   39  A    between atoms: _84  and  _85
REMARK   40  A    between atoms: _84  and  _87
REMARK   41  A    between atoms: _89  and  _91
REMARK   42  A    between atoms: _91  and  _92
REMARK   43  A    between atoms: _91  and  _94
REMARK   44  A    between atoms: _94  and  _95
REMARK   45  A    between atoms: _98  and  _100
REMARK   46  A    between atoms: _100  and  _101
REMARK   47  A    between atoms: _100  and  _103
REMARK   48  A    between atoms: _106  and  _108
REMARK   49  A    between atoms: _108  and  _109
REMARK   50  A    between atoms: _112  and  _114
REMARK   51  A    between atoms: _114  and  _115
REMARK   52  A    between atoms: _114  and  _117
REMARK   53  A    between atoms: _120  and  _122
REMARK   54  A    between atoms: _122  and  _123
REMARK   55  A    between atoms: _122  and  _125
REMARK   56  A    between atoms: _125  and  _126
REMARK   57  A    between atoms: _126  and  _127
REMARK   58  A    between atoms: _127  and  _128
REMARK   59  A    between atoms: _128  and  _129
REMARK   60  A    between atoms: _133  and  _135
REMARK   61  A    between atoms: _135  and  _136
REMARK   62  A    between atoms: _135  and  _138
REMARK   63  A    between atoms: _138  and  _139
REMARK   64  A    between atoms: _139  and  _140
REMARK   65  A    between atoms: _140  and  _141
REMARK   66  A    between atoms: _141  and  _142
REMARK   67  A    between atoms: _146  and  _148
REMARK   68  A    between atoms: _148  and  _149
REMARK   69  A    between atoms: _148  and  _151
REMARK   70  A    between atoms: _151  and  _152
REMARK   71  A    between atoms: _152  and  _153
REMARK   72  A    between atoms: _155  and  _157
REMARK   73  A    between atoms: _157  and  _158
REMARK   74  A    between atoms: _157  and  _160
REMARK   75  A    between atoms: _160  and  _161
REMARK   76  A    between atoms: _166  and  _168
REMARK   77  A    between atoms: _168  and  _169
REMARK   78  A    between atoms: _168  and  _171
REMARK   79  A    between atoms: _171  and  _172
REMARK   80  A    between atoms: _172  and  _173
REMARK   81  A    between atoms: _176  and  _178
REMARK   82  A    between atoms: _178  and  _179
REMARK   83  A    between atoms: _178  and  _181
REMARK   84  A    between atoms: _184  and  _186
REMARK   85  A    between atoms: _186  and  _187
REMARK   86  A    between atoms: _186  and  _189
REMARK   87  A    between atoms: _189  and  _190
REMARK   88  A    between atoms: _190  and  _191
REMARK   89  A    between atoms: _193  and  _195
REMARK   90  A    between atoms: _195  and  _196
REMARK   91  A    between atoms: _195  and  _198
REMARK   92  A    between atoms: _201  and  _203
REMARK   93  A    between atoms: _203  and  _204
REMARK   94  A    between atoms: _203  and  _206
REMARK   95  A    between atoms: _209  and  _211
REMARK   96  A    between atoms: _211  and  _212
REMARK   97  A    between atoms: _211  and  _214
REMARK   98  A    between atoms: _214  and  _215
REMARK   99  A    between atoms: _215  and  _216
REMARK  100  A    between atoms: _219  and  _221
REMARK  101  A    between atoms: _221  and  _222
REMARK  102  A    between atoms: _221  and  _224
REMARK  103  A    between atoms: _224  and  _225
REMARK  104  A    between atoms: _225  and  _226
REMARK  105  A    between atoms: _228  and  _230
REMARK  106  A    between atoms: _230  and  _231
REMARK  107  A    between atoms: _230  and  _233
REMARK  108  A    between atoms: _233  and  _234
REMARK  109  A    between atoms: _239  and  _240
REMARK  110  A    between atoms: _242  and  _244
REMARK  111  A    between atoms: _244  and  _245
REMARK  112  A    between atoms: _244  and  _247
REMARK  113  A    between atoms: _247  and  _248
REMARK  114  A    between atoms: _253  and  _255
REMARK  115  A    between atoms: _255  and  _256
REMARK  116  A    between atoms: _255  and  _258
REMARK  117  A    between atoms: _258  and  _259
REMARK  118  A    between atoms: _269  and  _271
REMARK  119  A    between atoms: _271  and  _272
REMARK  120  A    between atoms: _271  and  _274
REMARK  121  A    between atoms: _277  and  _279
REMARK  122  A    between atoms: _279  and  _280
REMARK  123  A    between atoms: _279  and  _282
REMARK  124  A    between atoms: _285  and  _287
REMARK  125  A    between atoms: _287  and  _288
REMARK  126  A    between atoms: _287  and  _290
REMARK  127  A    between atoms: _290  and  _291
REMARK  128  A    between atoms: _291  and  _292
REMARK  129  A    between atoms: _294  and  _296
REMARK  130  A    between atoms: _296  and  _297
REMARK  131  A    between atoms: _296  and  _299
REMARK  132  A    between atoms: _299  and  _300
REMARK  133  A    between atoms: _300  and  _301
REMARK  134  A    between atoms: _304  and  _306
REMARK  135  A    between atoms: _306  and  _307
REMARK  136  A    between atoms: _306  and  _309
REMARK  137  A    between atoms: _309  and  _310
REMARK  138  A    between atoms: _316  and  _318
REMARK  139  A    between atoms: _318  and  _319
REMARK  140  A    between atoms: _318  and  _321
REMARK  141  A    between atoms: _321  and  _322
REMARK  142  A    between atoms: _325  and  _327
REMARK  143  A    between atoms: _327  and  _328
REMARK  144  A    between atoms: _327  and  _330
REMARK  145  A    between atoms: _330  and  _331
REMARK  146  A    between atoms: _331  and  _332
REMARK  147  A    between atoms: _335  and  _337
REMARK  148  A    between atoms: _337  and  _338
REMARK  149  A    between atoms: _340  and  _342
REMARK  150  A    between atoms: _342  and  _343
REMARK  151  A    between atoms: _345  and  _347
REMARK  152  A    between atoms: _347  and  _348
REMARK  153  A    between atoms: _351  and  _353
REMARK  154  A    between atoms: _353  and  _354
REMARK  155  A    between atoms: _353  and  _356
REMARK  156  A    between atoms: _356  and  _357
REMARK  157  A    between atoms: _360  and  _362
REMARK  158  A    between atoms: _362  and  _363
REMARK  159  A    between atoms: _362  and  _365
REMARK  160  A    between atoms: _365  and  _366
REMARK  161  A    between atoms: _369  and  _371
REMARK  162  A    between atoms: _371  and  _372
REMARK  163  A    between atoms: _371  and  _374
REMARK  164  A    between atoms: _374  and  _375
REMARK  165  A    between atoms: _378  and  _380
REMARK  166  A    between atoms: _380  and  _381
REMARK  167  A    between atoms: _380  and  _383
REMARK  168  A    between atoms: _383  and  _384
REMARK  169  A    between atoms: _389  and  _391
REMARK  170  A    between atoms: _391  and  _392
REMARK  171  A    between atoms: _391  and  _394
REMARK  172  A    between atoms: _394  and  _395
REMARK  173  A    between atoms: _397  and  _399
REMARK  174  A    between atoms: _399  and  _400
REMARK  175  A    between atoms: _399  and  _402
REMARK  176  A    between atoms: _402  and  _403
REMARK  177  A    between atoms: _406  and  _408
REMARK  178  A    between atoms: _408  and  _409
REMARK  179  A    between atoms: _408  and  _411
REMARK  180  A    between atoms: _411  and  _412
REMARK  181  A    between atoms: _414  and  _416
REMARK  182  A    between atoms: _416  and  _417
REMARK  183  A    between atoms: _416  and  _419
REMARK  184  A    between atoms: _419  and  _420
REMARK  185  A    between atoms: _423  and  _425
REMARK  186  A    between atoms: _425  and  _426
REMARK  187  A    between atoms: _425  and  _428
REMARK  188  A    between atoms: _428  and  _429
REMARK  189  A    between atoms: _432  and  _434
REMARK  190  A    between atoms: _434  and  _435
REMARK  191  A    between atoms: _434  and  _437
REMARK  192  A    between atoms: _437  and  _438
REMARK  193  A    between atoms: _441  and  _443
REMARK  194  A    between atoms: _443  and  _444
REMARK  195  A    between atoms: _443  and  _446
REMARK  196  A    between atoms: _446  and  _447
REMARK  197  A    between atoms: _450  and  _452
REMARK  198  A    between atoms: _452  and  _453
REMARK  199  A    between atoms: _452  and  _455
REMARK  200  A    between atoms: _455  and  _456
REMARK  201  A    between atoms: _458  and  _460
REMARK  202  A    between atoms: _460  and  _461
REMARK  203  A    between atoms: _460  and  _463
REMARK  204  A    between atoms: _463  and  _464
REMARK  205  A    between atoms: _467  and  _469
REMARK  206  A    between atoms: _469  and  _470
REMARK  207  A    between atoms: _469  and  _472
REMARK  208  A    between atoms: _472  and  _473
REMARK  209  A    between atoms: _479  and  _481
REMARK  210  A    between atoms: _481  and  _482
REMARK  211  A    between atoms: _484  and  _486
REMARK  212  A    between atoms: _486  and  _487
REMARK  213  A    between atoms: _486  and  _489
REMARK  214  A    between atoms: _489  and  _490
REMARK  215  A    between atoms: _496  and  _498
REMARK  216  A    between atoms: _498  and  _499
REMARK  217  A    between atoms: _498  and  _501
REMARK                            x       y       z     vdW  Elec       q    Type
REMARK                         _______ _______ _______ _____ _____    ______ ____
ROOT
ATOM      1  O   HOH     1      10.332 -41.949   9.627  0.00  0.00    +0.000 OA
ENDROOT
TORSDOF 0
REMARK  Name = ../refined-set-2016/4o0y/4o0y_pocket.pdb
REMARK  217 active torsions:
REMARK  status: ('A' for Active; 'I' for Inactive)
REMARK    1  A    between atoms: _1  and  _3
REMARK    2  A    between atoms: _3  and  _4
REMARK    3  A    between atoms: _3  and  _6
REMARK    4  A    between atoms: _6  and  _7
REMARK    5  A    between atoms: _7  and  _8
REMARK    6  A    between atoms: _8  and  _9
REMARK    7  A    between atoms: _9  and  _10
REMARK    8  A    between atoms: _14  and  _16
REMARK    9  A    between atoms: _16  and  _17
REMARK   10  A    between atoms: _16  and  _19
REMARK   11  A    between atoms: _19  and  _20
REMARK   12  A    between atoms: _23  and  _25
REMARK   13  A    between atoms: _25  and  _26
REMARK   14  A    between atoms: _28  and  _30
REMARK   15  A    between atoms: _30  and  _31
REMARK   16  A    between atoms: _30  and  _33
REMARK   17  A    between atoms: _33  and  _34
REMARK   18  A    between atoms: _34  and  _35
REMARK   19  A    between atoms: _38  and  _40
REMARK   20  A    between atoms: _40  and  _41
REMARK   21  A    between atoms: _43  and  _45
REMARK   22  A    between atoms: _45  and  _46
REMARK   23  A    between atoms: _45  and  _48
REMARK   24  A    between atoms: _48  and  _49
REMARK   25  A    between atoms: _51  and  _53
REMARK   26  A    between atoms: _53  and  _54
REMARK   27  A    between atoms: _53  and  _56
REMARK   28  A    between atoms: _56  and  _57
REMARK   29  A    between atoms: _60  and  _62
REMARK   30  A    between atoms: _62  and  _63
REMARK   31  A    between atoms: _65  and  _67
REMARK   32  A    between atoms: _67  and  _68
REMARK   33  A    between atoms: _67  and  _70
REMARK   34  A    between atoms: _70  and  _71
REMARK   35  A    between atoms: _74  and  _76
REMARK   36  A    between atoms: _76  and  _77
REMARK   37  A    between atoms: _76  and  _79
REMARK   38  A    between atoms: _82  and  _84
REMARK   39  A    between atoms: _84  and  _85
REMARK   40  A    between atoms: _84  and  _87
REMARK   41  A    between atoms: _89  and  _91
REMARK   42  A    between atoms: _91  and  _92
REMARK   43  A    between atoms: _91  and  _94
REMARK   44  A    between atoms: _94  and  _95
REMARK   45  A    between atoms: _98  and  _100
REMARK   46  A    between atoms: _100  and  _101
REMARK   47  A    between atoms: _100  and  _103
REMARK   48  A    between atoms: _106  and  _108
REMARK   49  A    between atoms: _108  and  _109
REMARK   50  A    between atoms: _112  and  _114
REMARK   51  A    between atoms: _114  and  _115
REMARK   52  A    between atoms: _114  and  _117
REMARK   53  A    between atoms: _120  and  _122
REMARK   54  A    between atoms: _122  and  _123
REMARK   55  A    between atoms: _122  and  _125
REMARK   56  A    between atoms: _125  and  _126
REMARK   57  A    between atoms: _126  and  _127
REMARK   58  A    between atoms: _127  and  _128
REMARK   59  A    between atoms: _128  and  _129
REMARK   60  A    between atoms: _133  and  _135
REMARK   61  A    between atoms: _135  and  _136
REMARK   62  A    between atoms: _135  and  _138
REMARK   63  A    between atoms: _138  and  _139
REMARK   64  A    between atoms: _139  and  _140
REMARK   65  A    between atoms: _140  and  _141
REMARK   66  A    between atoms: _141  and  _142
REMARK   67  A    between atoms: _146  and  _148
REMARK   68  A    between atoms: _148  and  _149
REMARK   69  A    between atoms: _148  and  _151
REMARK   70  A    between atoms: _151  and  _152
REMARK   71  A    between atoms: _152  and  _153
REMARK   72  A    between atoms: _155  and  _157
REMARK   73  A    between atoms: _157  and  _158
REMARK   74  A    between atoms: _157  and  _160
REMARK   75  A    between atoms: _160  and  _161
REMARK   76  A    between atoms: _166  and  _168
REMARK   77  A    between atoms: _168  and  _169
REMARK   78  A    between atoms: _168  and  _171
REMARK   79  A    between atoms: _171  and  _172
REMARK   80  A    between atoms: _172  and  _173
REMARK   81  A    between atoms: _176  and  _178
REMARK   82  A    between atoms: _178  and  _179
REMARK   83  A    between atoms: _178  and  _181
REMARK   84  A    between atoms: _184  and  _186
REMARK   85  A    between atoms: _186  and  _187
REMARK   86  A    between atoms: _186  and  _189
REMARK   87  A    between atoms: _189  and  _190
REMARK   88  A    between atoms: _190  and  _191
REMARK   89  A    between atoms: _193  and  _195
REMARK   90  A    between atoms: _195  and  _196
REMARK   91  A    between atoms: _195  and  _198
REMARK   92  A    between atoms: _201  and  _203
REMARK   93  A    between atoms: _203  and  _204
REMARK   94  A    between atoms: _203  and  _206
REMARK   95  A    between atoms: _209  and  _211
REMARK   96  A    between atoms: _211  and  _212
REMARK   97  A    between atoms: _211  and  _214
REMARK   98  A    between atoms: _214  and  _215
REMARK   99  A    between atoms: _215  and  _216
REMARK  100  A    between atoms: _219  and  _221
REMARK  101  A    between atoms: _221  and  _222
REMARK  102  A    between atoms: _221  and  _224
REMARK  103  A    between atoms: _224  and  _225
REMARK  104  A    between atoms: _225  and  _226
REMARK  105  A    between atoms: _228  and  _230
REMARK  106  A    between atoms: _230  and  _231
REMARK  107  A    between atoms: _230  and  _233
REMARK  108  A    between atoms: _233  and  _234
REMARK  109  A    between atoms: _239  and  _240
REMARK  110  A    between atoms: _242  and  _244
REMARK  111  A    between atoms: _244  and  _245
REMARK  112  A    between atoms: _244  and  _247
REMARK  113  A    between atoms: _247  and  _248
REMARK  114  A    between atoms: _253  and  _255
REMARK  115  A    between atoms: _255  and  _256
REMARK  116  A    between atoms: _255  and  _258
REMARK  117  A    between atoms: _258  and  _259
REMARK  118  A    between atoms: _269  and  _271
REMARK  119  A    between atoms: _271  and  _272
REMARK  120  A    between atoms: _271  and  _274
REMARK  121  A    between atoms: _277  and  _279
REMARK  122  A    between atoms: _279  and  _280
REMARK  123  A    between atoms: _279  and  _282
REMARK  124  A    between atoms: _285  and  _287
REMARK  125  A    between atoms: _287  and  _288
REMARK  126  A    between atoms: _287  and  _290
REMARK  127  A    between atoms: _290  and  _291
REMARK  128  A    between atoms: _291  and  _292
REMARK  129  A    between atoms: _294  and  _296
REMARK  130  A    between atoms: _296  and  _297
REMARK  131  A    between atoms: _296  and  _299
REMARK  132  A    between atoms: _299  and  _300
REMARK  133  A    between atoms: _300  and  _301
REMARK  134  A    between atoms: _304  and  _306
REMARK  135  A    between atoms: _306  and  _307
REMARK  136  A    between atoms: _306  and  _309
REMARK  137  A    between atoms: _309  and  _310
REMARK  138  A    between atoms: _316  and  _318
REMARK  139  A    between atoms: _318  and  _319
REMARK  140  A    between atoms: _318  and  _321
REMARK  141  A    between atoms: _321  and  _322
REMARK  142  A    between atoms: _325  and  _327
REMARK  143  A    between atoms: _327  and  _328
REMARK  144  A    between atoms: _327  and  _330
REMARK  145  A    between atoms: _330  and  _331
REMARK  146  A    between atoms: _331  and  _332
REMARK  147  A    between atoms: _335  and  _337
REMARK  148  A    between atoms: _337  and  _338
REMARK  149  A    between atoms: _340  and  _342
REMARK  150  A    between atoms: _342  and  _343
REMARK  151  A    between atoms: _345  and  _347
REMARK  152  A    between atoms: _347  and  _348
REMARK  153  A    between atoms: _351  and  _353
REMARK  154  A    between atoms: _353  and  _354
REMARK  155  A    between atoms: _353  and  _356
REMARK  156  A    between atoms: _356  and  _357
REMARK  157  A    between atoms: _360  and  _362
REMARK  158  A    between atoms: _362  and  _363
REMARK  159  A    between atoms: _362  and  _365
REMARK  160  A    between atoms: _365  and  _366
REMARK  161  A    between atoms: _369  and  _371
REMARK  162  A    between atoms: _371  and  _372
REMARK  163  A    between atoms: _371  and  _374
REMARK  164  A    between atoms: _374  and  _375
REMARK  165  A    between atoms: _378  and  _380
REMARK  166  A    between atoms: _380  and  _381
REMARK  167  A    between atoms: _380  and  _383
REMARK  168  A    between atoms: _383  and  _384
REMARK  169  A    between atoms: _389  and  _391
REMARK  170  A    between atoms: _391  and  _392
REMARK  171  A    between atoms: _391  and  _394
REMARK  172  A    between atoms: _394  and  _395
REMARK  173  A    between atoms: _397  and  _399
REMARK  174  A    between atoms: _399  and  _400
REMARK  175  A    between atoms: _399  and  _402
REMARK  176  A    between atoms: _402  and  _403
REMARK  177  A    between atoms: _406  and  _408
REMARK  178  A    between atoms: _408  and  _409
REMARK  179  A    between atoms: _408  and  _411
REMARK  180  A    between atoms: _411  and  _412
REMARK  181  A    between atoms: _414  and  _416
REMARK  182  A    between atoms: _416  and  _417
REMARK  183  A    between atoms: _416  and  _419
REMARK  184  A    between atoms: _419  and  _420
REMARK  185  A    between atoms: _423  and  _425
REMARK  186  A    between atoms: _425  and  _426
REMARK  187  A    between atoms: _425  and  _428
REMARK  188  A    between atoms: _428  and  _429
REMARK  189  A    between atoms: _432  and  _434
REMARK  190  A    between atoms: _434  and  _435
REMARK  191  A    between atoms: _434  and  _437
REMARK  192  A    between atoms: _437  and  _438
REMARK  193  A    between atoms: _441  and  _443
REMARK  194  A    between atoms: _443  and  _444
REMARK  195  A    between atoms: _443  and  _446
REMARK  196  A    between atoms: _446  and  _447
REMARK  197  A    between atoms: _450  and  _452
REMARK  198  A    between atoms: _452  and  _453
REMARK  199  A    between atoms: _452  and  _455
REMARK  200  A    between atoms: _455  and  _456
REMARK  201  A    between atoms: _458  and  _460
REMARK  202  A    between atoms: _460  and  _461
REMARK  203  A    between atoms: _460  and  _463
REMARK  204  A    between atoms: _463  and  _464
REMARK  205  A    between atoms: _467  and  _469
REMARK  206  A    between atoms: _469  and  _470
REMARK  207  A    between atoms: _469  and  _472
REMARK  208  A    between atoms: _472  and  _473
REMARK  209  A    between atoms: _479  and  _481
REMARK  210  A    between atoms: _481  and  _482
REMARK  211  A    between atoms: _484  and  _486
REMARK  212  A    between atoms: _486  and  _487
REMARK  213  A    between atoms: _486  and  _489
REMARK  214  A    between atoms: _489  and  _490
REMARK  215  A    between atoms: _496  and  _498
REMARK  216  A    between atoms: _498  and  _499
REMARK  217  A    between atoms: _498  and  _501
REMARK                            x       y       z     vdW  Elec       q    Type
REMARK                         _______ _______ _______ _____ _____    ______ ____
ROOT
ATOM      1  O   HOH     1      14.058 -25.568   9.084  0.00  0.00    +0.000 OA
ENDROOT
TORSDOF 0
REMARK  Name = ../refined-set-2016/4o0y/4o0y_pocket.pdb
REMARK  217 active torsions:
REMARK  status: ('A' for Active; 'I' for Inactive)
REMARK    1  A    between atoms: _1  and  _3
REMARK    2  A    between atoms: _3  and  _4
REMARK    3  A    between atoms: _3  and  _6
REMARK    4  A    between atoms: _6  and  _7
REMARK    5  A    between atoms: _7  and  _8
REMARK    6  A    between atoms: _8  and  _9
REMARK    7  A    between atoms: _9  and  _10
REMARK    8  A    between atoms: _14  and  _16
REMARK    9  A    between atoms: _16  and  _17
REMARK   10  A    between atoms: _16  and  _19
REMARK   11  A    between atoms: _19  and  _20
REMARK   12  A    between atoms: _23  and  _25
REMARK   13  A    between atoms: _25  and  _26
REMARK   14  A    between atoms: _28  and  _30
REMARK   15  A    between atoms: _30  and  _31
REMARK   16  A    between atoms: _30  and  _33
REMARK   17  A    between atoms: _33  and  _34
REMARK   18  A    between atoms: _34  and  _35
REMARK   19  A    between atoms: _38  and  _40
REMARK   20  A    between atoms: _40  and  _41
REMARK   21  A    between atoms: _43  and  _45
REMARK   22  A    between atoms: _45  and  _46
REMARK   23  A    between atoms: _45  and  _48
REMARK   24  A    between atoms: _48  and  _49
REMARK   25  A    between atoms: _51  and  _53
REMARK   26  A    between atoms: _53  and  _54
REMARK   27  A    between atoms: _53  and  _56
REMARK   28  A    between atoms: _56  and  _57
REMARK   29  A    between atoms: _60  and  _62
REMARK   30  A    between atoms: _62  and  _63
REMARK   31  A    between atoms: _65  and  _67
REMARK   32  A    between atoms: _67  and  _68
REMARK   33  A    between atoms: _67  and  _70
REMARK   34  A    between atoms: _70  and  _71
REMARK   35  A    between atoms: _74  and  _76
REMARK   36  A    between atoms: _76  and  _77
REMARK   37  A    between atoms: _76  and  _79
REMARK   38  A    between atoms: _82  and  _84
REMARK   39  A    between atoms: _84  and  _85
REMARK   40  A    between atoms: _84  and  _87
REMARK   41  A    between atoms: _89  and  _91
REMARK   42  A    between atoms: _91  and  _92
REMARK   43  A    between atoms: _91  and  _94
REMARK   44  A    between atoms: _94  and  _95
REMARK   45  A    between atoms: _98  and  _100
REMARK   46  A    between atoms: _100  and  _101
REMARK   47  A    between atoms: _100  and  _103
REMARK   48  A    between atoms: _106  and  _108
REMARK   49  A    between atoms: _108  and  _109
REMARK   50  A    between atoms: _112  and  _114
REMARK   51  A    between atoms: _114  and  _115
REMARK   52  A    between atoms: _114  and  _117
REMARK   53  A    between atoms: _120  and  _122
REMARK   54  A    between atoms: _122  and  _123
REMARK   55  A    between atoms: _122  and  _125
REMARK   56  A    between atoms: _125  and  _126
REMARK   57  A    between atoms: _126  and  _127
REMARK   58  A    between atoms: _127  and  _128
REMARK   59  A    between atoms: _128  and  _129
REMARK   60  A    between atoms: _133  and  _135
REMARK   61  A    between atoms: _135  and  _136
REMARK   62  A    between atoms: _135  and  _138
REMARK   63  A    between atoms: _138  and  _139
REMARK   64  A    between atoms: _139  and  _140
REMARK   65  A    between atoms: _140  and  _141
REMARK   66  A    between atoms: _141  and  _142
REMARK   67  A    between atoms: _146  and  _148
REMARK   68  A    between atoms: _148  and  _149
REMARK   69  A    between atoms: _148  and  _151
REMARK   70  A    between atoms: _151  and  _152
REMARK   71  A    between atoms: _152  and  _153
REMARK   72  A    between atoms: _155  and  _157
REMARK   73  A    between atoms: _157  and  _158
REMARK   74  A    between atoms: _157  and  _160
REMARK   75  A    between atoms: _160  and  _161
REMARK   76  A    between atoms: _166  and  _168
REMARK   77  A    between atoms: _168  and  _169
REMARK   78  A    between atoms: _168  and  _171
REMARK   79  A    between atoms: _171  and  _172
REMARK   80  A    between atoms: _172  and  _173
REMARK   81  A    between atoms: _176  and  _178
REMARK   82  A    between atoms: _178  and  _179
REMARK   83  A    between atoms: _178  and  _181
REMARK   84  A    between atoms: _184  and  _186
REMARK   85  A    between atoms: _186  and  _187
REMARK   86  A    between atoms: _186  and  _189
REMARK   87  A    between atoms: _189  and  _190
REMARK   88  A    between atoms: _190  and  _191
REMARK   89  A    between atoms: _193  and  _195
REMARK   90  A    between atoms: _195  and  _196
REMARK   91  A    between atoms: _195  and  _198
REMARK   92  A    between atoms: _201  and  _203
REMARK   93  A    between atoms: _203  and  _204
REMARK   94  A    between atoms: _203  and  _206
REMARK   95  A    between atoms: _209  and  _211
REMARK   96  A    between atoms: _211  and  _212
REMARK   97  A    between atoms: _211  and  _214
REMARK   98  A    between atoms: _214  and  _215
REMARK   99  A    between atoms: _215  and  _216
REMARK  100  A    between atoms: _219  and  _221
REMARK  101  A    between atoms: _221  and  _222
REMARK  102  A    between atoms: _221  and  _224
REMARK  103  A    between atoms: _224  and  _225
REMARK  104  A    between atoms: _225  and  _226
REMARK  105  A    between atoms: _228  and  _230
REMARK  106  A    between atoms: _230  and  _231
REMARK  107  A    between atoms: _230  and  _233
REMARK  108  A    between atoms: _233  and  _234
REMARK  109  A    between atoms: _239  and  _240
REMARK  110  A    between atoms: _242  and  _244
REMARK  111  A    between atoms: _244  and  _245
REMARK  112  A    between atoms: _244  and  _247
REMARK  113  A    between atoms: _247  and  _248
REMARK  114  A    between atoms: _253  and  _255
REMARK  115  A    between atoms: _255  and  _256
REMARK  116  A    between atoms: _255  and  _258
REMARK  117  A    between atoms: _258  and  _259
REMARK  118  A    between atoms: _269  and  _271
REMARK  119  A    between atoms: _271  and  _272
REMARK  120  A    between atoms: _271  and  _274
REMARK  121  A    between atoms: _277  and  _279
REMARK  122  A    between atoms: _279  and  _280
REMARK  123  A    between atoms: _279  and  _282
REMARK  124  A    between atoms: _285  and  _287
REMARK  125  A    between atoms: _287  and  _288
REMARK  126  A    between atoms: _287  and  _290
REMARK  127  A    between atoms: _290  and  _291
REMARK  128  A    between atoms: _291  and  _292
REMARK  129  A    between atoms: _294  and  _296
REMARK  130  A    between atoms: _296  and  _297
REMARK  131  A    between atoms: _296  and  _299
REMARK  132  A    between atoms: _299  and  _300
REMARK  133  A    between atoms: _300  and  _301
REMARK  134  A    between atoms: _304  and  _306
REMARK  135  A    between atoms: _306  and  _307
REMARK  136  A    between atoms: _306  and  _309
REMARK  137  A    between atoms: _309  and  _310
REMARK  138  A    between atoms: _316  and  _318
REMARK  139  A    between atoms: _318  and  _319
REMARK  140  A    between atoms: _318  and  _321
REMARK  141  A    between atoms: _321  and  _322
REMARK  142  A    between atoms: _325  and  _327
REMARK  143  A    between atoms: _327  and  _328
REMARK  144  A    between atoms: _327  and  _330
REMARK  145  A    between atoms: _330  and  _331
REMARK  146  A    between atoms: _331  and  _332
REMARK  147  A    between atoms: _335  and  _337
REMARK  148  A    between atoms: _337  and  _338
REMARK  149  A    between atoms: _340  and  _342
REMARK  150  A    between atoms: _342  and  _343
REMARK  151  A    between atoms: _345  and  _347
REMARK  152  A    between atoms: _347  and  _348
REMARK  153  A    between atoms: _351  and  _353
REMARK  154  A    between atoms: _353  and  _354
REMARK  155  A    between atoms: _353  and  _356
REMARK  156  A    between atoms: _356  and  _357
REMARK  157  A    between atoms: _360  and  _362
REMARK  158  A    between atoms: _362  and  _363
REMARK  159  A    between atoms: _362  and  _365
REMARK  160  A    between atoms: _365  and  _366
REMARK  161  A    between atoms: _369  and  _371
REMARK  162  A    between atoms: _371  and  _372
REMARK  163  A    between atoms: _371  and  _374
REMARK  164  A    between atoms: _374  and  _375
REMARK  165  A    between atoms: _378  and  _380
REMARK  166  A    between atoms: _380  and  _381
REMARK  167  A    between atoms: _380  and  _383
REMARK  168  A    between atoms: _383  and  _384
REMARK  169  A    between atoms: _389  and  _391
REMARK  170  A    between atoms: _391  and  _392
REMARK  171  A    between atoms: _391  and  _394
REMARK  172  A    between atoms: _394  and  _395
REMARK  173  A    between atoms: _397  and  _399
REMARK  174  A    between atoms: _399  and  _400
REMARK  175  A    between atoms: _399  and  _402
REMARK  176  A    between atoms: _402  and  _403
REMARK  177  A    between atoms: _406  and  _408
REMARK  178  A    between atoms: _408  and  _409
REMARK  179  A    between atoms: _408  and  _411
REMARK  180  A    between atoms: _411  and  _412
REMARK  181  A    between atoms: _414  and  _416
REMARK  182  A    between atoms: _416  and  _417
REMARK  183  A    between atoms: _416  and  _419
REMARK  184  A    between atoms: _419  and  _420
REMARK  185  A    between atoms: _423  and  _425
REMARK  186  A    between atoms: _425  and  _426
REMARK  187  A    between atoms: _425  and  _428
REMARK  188  A    between atoms: _428  and  _429
REMARK  189  A    between atoms: _432  and  _434
REMARK  190  A    between atoms: _434  and  _435
REMARK  191  A    between atoms: _434  and  _437
REMARK  192  A    between atoms: _437  and  _438
REMARK  193  A    between atoms: _441  and  _443
REMARK  194  A    between atoms: _443  and  _444
REMARK  195  A    between atoms: _443  and  _446
REMARK  196  A    between atoms: _446  and  _447
REMARK  197  A    between atoms: _450  and  _452
REMARK  198  A    between atoms: _452  and  _453
REMARK  199  A    between atoms: _452  and  _455
REMARK  200  A    between atoms: _455  and  _456
REMARK  201  A    between atoms: _458  and  _460
REMARK  202  A    between atoms: _460  and  _461
REMARK  203  A    between atoms: _460  and  _463
REMARK  204  A    between atoms: _463  and  _464
REMARK  205  A    between atoms: _467  and  _469
REMARK  206  A    between atoms: _469  and  _470
REMARK  207  A    between atoms: _469  and  _472
REMARK  208  A    between atoms: _472  and  _473
REMARK  209  A    between atoms: _479  and  _481
REMARK  210  A    between atoms: _481  and  _482
REMARK  211  A    between atoms: _484  and  _486
REMARK  212  A    between atoms: _486  and  _487
REMARK  213  A    between atoms: _486  and  _489
REMARK  214  A    between atoms: _489  and  _490
REMARK  215  A    between atoms: _496  and  _498
REMARK  216  A    between atoms: _498  and  _499
REMARK  217  A    between atoms: _498  and  _501
REMARK                            x       y       z     vdW  Elec       q    Type
REMARK                         _______ _______ _______ _____ _____    ______ ____
ROOT
ATOM      1  O   HOH     1      11.312 -39.572   9.649  0.00  0.00    +0.000 OA
ENDROOT
TORSDOF 0
REMARK  Name = ../refined-set-2016/4o0y/4o0y_pocket.pdb
REMARK  217 active torsions:
REMARK  status: ('A' for Active; 'I' for Inactive)
REMARK    1  A    between atoms: _1  and  _3
REMARK    2  A    between atoms: _3  and  _4
REMARK    3  A    between atoms: _3  and  _6
REMARK    4  A    between atoms: _6  and  _7
REMARK    5  A    between atoms: _7  and  _8
REMARK    6  A    between atoms: _8  and  _9
REMARK    7  A    between atoms: _9  and  _10
REMARK    8  A    between atoms: _14  and  _16
REMARK    9  A    between atoms: _16  and  _17
REMARK   10  A    between atoms: _16  and  _19
REMARK   11  A    between atoms: _19  and  _20
REMARK   12  A    between atoms: _23  and  _25
REMARK   13  A    between atoms: _25  and  _26
REMARK   14  A    between atoms: _28  and  _30
REMARK   15  A    between atoms: _30  and  _31
REMARK   16  A    between atoms: _30  and  _33
REMARK   17  A    between atoms: _33  and  _34
REMARK   18  A    between atoms: _34  and  _35
REMARK   19  A    between atoms: _38  and  _40
REMARK   20  A    between atoms: _40  and  _41
REMARK   21  A    between atoms: _43  and  _45
REMARK   22  A    between atoms: _45  and  _46
REMARK   23  A    between atoms: _45  and  _48
REMARK   24  A    between atoms: _48  and  _49
REMARK   25  A    between atoms: _51  and  _53
REMARK   26  A    between atoms: _53  and  _54
REMARK   27  A    between atoms: _53  and  _56
REMARK   28  A    between atoms: _56  and  _57
REMARK   29  A    between atoms: _60  and  _62
REMARK   30  A    between atoms: _62  and  _63
REMARK   31  A    between atoms: _65  and  _67
REMARK   32  A    between atoms: _67  and  _68
REMARK   33  A    between atoms: _67  and  _70
REMARK   34  A    between atoms: _70  and  _71
REMARK   35  A    between atoms: _74  and  _76
REMARK   36  A    between atoms: _76  and  _77
REMARK   37  A    between atoms: _76  and  _79
REMARK   38  A    between atoms: _82  and  _84
REMARK   39  A    between atoms: _84  and  _85
REMARK   40  A    between atoms: _84  and  _87
REMARK   41  A    between atoms: _89  and  _91
REMARK   42  A    between atoms: _91  and  _92
REMARK   43  A    between atoms: _91  and  _94
REMARK   44  A    between atoms: _94  and  _95
REMARK   45  A    between atoms: _98  and  _100
REMARK   46  A    between atoms: _100  and  _101
REMARK   47  A    between atoms: _100  and  _103
REMARK   48  A    between atoms: _106  and  _108
REMARK   49  A    between atoms: _108  and  _109
REMARK   50  A    between atoms: _112  and  _114
REMARK   51  A    between atoms: _114  and  _115
REMARK   52  A    between atoms: _114  and  _117
REMARK   53  A    between atoms: _120  and  _122
REMARK   54  A    between atoms: _122  and  _123
REMARK   55  A    between atoms: _122  and  _125
REMARK   56  A    between atoms: _125  and  _126
REMARK   57  A    between atoms: _126  and  _127
REMARK   58  A    between atoms: _127  and  _128
REMARK   59  A    between atoms: _128  and  _129
REMARK   60  A    between atoms: _133  and  _135
REMARK   61  A    between atoms: _135  and  _136
REMARK   62  A    between atoms: _135  and  _138
REMARK   63  A    between atoms: _138  and  _139
REMARK   64  A    between atoms: _139  and  _140
REMARK   65  A    between atoms: _140  and  _141
REMARK   66  A    between atoms: _141  and  _142
REMARK   67  A    between atoms: _146  and  _148
REMARK   68  A    between atoms: _148  and  _149
REMARK   69  A    between atoms: _148  and  _151
REMARK   70  A    between atoms: _151  and  _152
REMARK   71  A    between atoms: _152  and  _153
REMARK   72  A    between atoms: _155  and  _157
REMARK   73  A    between atoms: _157  and  _158
REMARK   74  A    between atoms: _157  and  _160
REMARK   75  A    between atoms: _160  and  _161
REMARK   76  A    between atoms: _166  and  _168
REMARK   77  A    between atoms: _168  and  _169
REMARK   78  A    between atoms: _168  and  _171
REMARK   79  A    between atoms: _171  and  _172
REMARK   80  A    between atoms: _172  and  _173
REMARK   81  A    between atoms: _176  and  _178
REMARK   82  A    between atoms: _178  and  _179
REMARK   83  A    between atoms: _178  and  _181
REMARK   84  A    between atoms: _184  and  _186
REMARK   85  A    between atoms: _186  and  _187
REMARK   86  A    between atoms: _186  and  _189
REMARK   87  A    between atoms: _189  and  _190
REMARK   88  A    between atoms: _190  and  _191
REMARK   89  A    between atoms: _193  and  _195
REMARK   90  A    between atoms: _195  and  _196
REMARK   91  A    between atoms: _195  and  _198
REMARK   92  A    between atoms: _201  and  _203
REMARK   93  A    between atoms: _203  and  _204
REMARK   94  A    between atoms: _203  and  _206
REMARK   95  A    between atoms: _209  and  _211
REMARK   96  A    between atoms: _211  and  _212
REMARK   97  A    between atoms: _211  and  _214
REMARK   98  A    between atoms: _214  and  _215
REMARK   99  A    between atoms: _215  and  _216
REMARK  100  A    between atoms: _219  and  _221
REMARK  101  A    between atoms: _221  and  _222
REMARK  102  A    between atoms: _221  and  _224
REMARK  103  A    between atoms: _224  and  _225
REMARK  104  A    between atoms: _225  and  _226
REMARK  105  A    between atoms: _228  and  _230
REMARK  106  A    between atoms: _230  and  _231
REMARK  107  A    between atoms: _230  and  _233
REMARK  108  A    between atoms: _233  and  _234
REMARK  109  A    between atoms: _239  and  _240
REMARK  110  A    between atoms: _242  and  _244
REMARK  111  A    between atoms: _244  and  _245
REMARK  112  A    between atoms: _244  and  _247
REMARK  113  A    between atoms: _247  and  _248
REMARK  114  A    between atoms: _253  and  _255
REMARK  115  A    between atoms: _255  and  _256
REMARK  116  A    between atoms: _255  and  _258
REMARK  117  A    between atoms: _258  and  _259
REMARK  118  A    between atoms: _269  and  _271
REMARK  119  A    between atoms: _271  and  _272
REMARK  120  A    between atoms: _271  and  _274
REMARK  121  A    between atoms: _277  and  _279
REMARK  122  A    between atoms: _279  and  _280
REMARK  123  A    between atoms: _279  and  _282
REMARK  124  A    between atoms: _285  and  _287
REMARK  125  A    between atoms: _287  and  _288
REMARK  126  A    between atoms: _287  and  _290
REMARK  127  A    between atoms: _290  and  _291
REMARK  128  A    between atoms: _291  and  _292
REMARK  129  A    between atoms: _294  and  _296
REMARK  130  A    between atoms: _296  and  _297
REMARK  131  A    between atoms: _296  and  _299
REMARK  132  A    between atoms: _299  and  _300
REMARK  133  A    between atoms: _300  and  _301
REMARK  134  A    between atoms: _304  and  _306
REMARK  135  A    between atoms: _306  and  _307
REMARK  136  A    between atoms: _306  and  _309
REMARK  137  A    between atoms: _309  and  _310
REMARK  138  A    between atoms: _316  and  _318
REMARK  139  A    between atoms: _318  and  _319
REMARK  140  A    between atoms: _318  and  _321
REMARK  141  A    between atoms: _321  and  _322
REMARK  142  A    between atoms: _325  and  _327
REMARK  143  A    between atoms: _327  and  _328
REMARK  144  A    between atoms: _327  and  _330
REMARK  145  A    between atoms: _330  and  _331
REMARK  146  A    between atoms: _331  and  _332
REMARK  147  A    between atoms: _335  and  _337
REMARK  148  A    between atoms: _337  and  _338
REMARK  149  A    between atoms: _340  and  _342
REMARK  150  A    between atoms: _342  and  _343
REMARK  151  A    between atoms: _345  and  _347
REMARK  152  A    between atoms: _347  and  _348
REMARK  153  A    between atoms: _351  and  _353
REMARK  154  A    between atoms: _353  and  _354
REMARK  155  A    between atoms: _353  and  _356
REMARK  156  A    between atoms: _356  and  _357
REMARK  157  A    between atoms: _360  and  _362
REMARK  158  A    between atoms: _362  and  _363
REMARK  159  A    between atoms: _362  and  _365
REMARK  160  A    between atoms: _365  and  _366
REMARK  161  A    between atoms: _369  and  _371
REMARK  162  A    between atoms: _371  and  _372
REMARK  163  A    between atoms: _371  and  _374
REMARK  164  A    between atoms: _374  and  _375
REMARK  165  A    between atoms: _378  and  _380
REMARK  166  A    between atoms: _380  and  _381
REMARK  167  A    between atoms: _380  and  _383
REMARK  168  A    between atoms: _383  and  _384
REMARK  169  A    between atoms: _389  and  _391
REMARK  170  A    between atoms: _391  and  _392
REMARK  171  A    between atoms: _391  and  _394
REMARK  172  A    between atoms: _394  and  _395
REMARK  173  A    between atoms: _397  and  _399
REMARK  174  A    between atoms: _399  and  _400
REMARK  175  A    between atoms: _399  and  _402
REMARK  176  A    between atoms: _402  and  _403
REMARK  177  A    between atoms: _406  and  _408
REMARK  178  A    between atoms: _408  and  _409
REMARK  179  A    between atoms: _408  and  _411
REMARK  180  A    between atoms: _411  and  _412
REMARK  181  A    between atoms: _414  and  _416
REMARK  182  A    between atoms: _416  and  _417
REMARK  183  A    between atoms: _416  and  _419
REMARK  184  A    between atoms: _419  and  _420
REMARK  185  A    between atoms: _423  and  _425
REMARK  186  A    between atoms: _425  and  _426
REMARK  187  A    between atoms: _425  and  _428
REMARK  188  A    between atoms: _428  and  _429
REMARK  189  A    between atoms: _432  and  _434
REMARK  190  A    between atoms: _434  and  _435
REMARK  191  A    between atoms: _434  and  _437
REMARK  192  A    between atoms: _437  and  _438
REMARK  193  A    between atoms: _441  and  _443
REMARK  194  A    between atoms: _443  and  _444
REMARK  195  A    between atoms: _443  and  _446
REMARK  196  A    between atoms: _446  and  _447
REMARK  197  A    between atoms: _450  and  _452
REMARK  198  A    between atoms: _452  and  _453
REMARK  199  A    between atoms: _452  and  _455
REMARK  200  A    between atoms: _455  and  _456
REMARK  201  A    between atoms: _458  and  _460
REMARK  202  A    between atoms: _460  and  _461
REMARK  203  A    between atoms: _460  and  _463
REMARK  204  A    between atoms: _463  and  _464
REMARK  205  A    between atoms: _467  and  _469
REMARK  206  A    between atoms: _469  and  _470
REMARK  207  A    between atoms: _469  and  _472
REMARK  208  A    between atoms: _472  and  _473
REMARK  209  A    between atoms: _479  and  _481
REMARK  210  A    between atoms: _481  and  _482
REMARK  211  A    between atoms: _484  and  _486
REMARK  212  A    between atoms: _486  and  _487
REMARK  213  A    between atoms: _486  and  _489
REMARK  214  A    between atoms: _489  and  _490
REMARK  215  A    between atoms: _496  and  _498
REMARK  216  A    between atoms: _498  and  _499
REMARK  217  A    between atoms: _498  and  _501
REMARK                            x       y       z     vdW  Elec       q    Type
REMARK                         _______ _______ _______ _____ _____    ______ ____
ROOT
ATOM      1  O   HOH     1      13.916 -29.541  10.145  0.00  0.00    +0.000 OA
ENDROOT
TORSDOF 0
REMARK  Name = ../refined-set-2016/4o0y/4o0y_pocket.pdb
REMARK  217 active torsions:
REMARK  status: ('A' for Active; 'I' for Inactive)
REMARK    1  A    between atoms: _1  and  _3
REMARK    2  A    between atoms: _3  and  _4
REMARK    3  A    between atoms: _3  and  _6
REMARK    4  A    between atoms: _6  and  _7
REMARK    5  A    between atoms: _7  and  _8
REMARK    6  A    between atoms: _8  and  _9
REMARK    7  A    between atoms: _9  and  _10
REMARK    8  A    between atoms: _14  and  _16
REMARK    9  A    between atoms: _16  and  _17
REMARK   10  A    between atoms: _16  and  _19
REMARK   11  A    between atoms: _19  and  _20
REMARK   12  A    between atoms: _23  and  _25
REMARK   13  A    between atoms: _25  and  _26
REMARK   14  A    between atoms: _28  and  _30
REMARK   15  A    between atoms: _30  and  _31
REMARK   16  A    between atoms: _30  and  _33
REMARK   17  A    between atoms: _33  and  _34
REMARK   18  A    between atoms: _34  and  _35
REMARK   19  A    between atoms: _38  and  _40
REMARK   20  A    between atoms: _40  and  _41
REMARK   21  A    between atoms: _43  and  _45
REMARK   22  A    between atoms: _45  and  _46
REMARK   23  A    between atoms: _45  and  _48
REMARK   24  A    between atoms: _48  and  _49
REMARK   25  A    between atoms: _51  and  _53
REMARK   26  A    between atoms: _53  and  _54
REMARK   27  A    between atoms: _53  and  _56
REMARK   28  A    between atoms: _56  and  _57
REMARK   29  A    between atoms: _60  and  _62
REMARK   30  A    between atoms: _62  and  _63
REMARK   31  A    between atoms: _65  and  _67
REMARK   32  A    between atoms: _67  and  _68
REMARK   33  A    between atoms: _67  and  _70
REMARK   34  A    between atoms: _70  and  _71
REMARK   35  A    between atoms: _74  and  _76
REMARK   36  A    between atoms: _76  and  _77
REMARK   37  A    between atoms: _76  and  _79
REMARK   38  A    between atoms: _82  and  _84
REMARK   39  A    between atoms: _84  and  _85
REMARK   40  A    between atoms: _84  and  _87
REMARK   41  A    between atoms: _89  and  _91
REMARK   42  A    between atoms: _91  and  _92
REMARK   43  A    between atoms: _91  and  _94
REMARK   44  A    between atoms: _94  and  _95
REMARK   45  A    between atoms: _98  and  _100
REMARK   46  A    between atoms: _100  and  _101
REMARK   47  A    between atoms: _100  and  _103
REMARK   48  A    between atoms: _106  and  _108
REMARK   49  A    between atoms: _108  and  _109
REMARK   50  A    between atoms: _112  and  _114
REMARK   51  A    between atoms: _114  and  _115
REMARK   52  A    between atoms: _114  and  _117
REMARK   53  A    between atoms: _120  and  _122
REMARK   54  A    between atoms: _122  and  _123
REMARK   55  A    between atoms: _122  and  _125
REMARK   56  A    between atoms: _125  and  _126
REMARK   57  A    between atoms: _126  and  _127
REMARK   58  A    between atoms: _127  and  _128
REMARK   59  A    between atoms: _128  and  _129
REMARK   60  A    between atoms: _133  and  _135
REMARK   61  A    between atoms: _135  and  _136
REMARK   62  A    between atoms: _135  and  _138
REMARK   63  A    between atoms: _138  and  _139
REMARK   64  A    between atoms: _139  and  _140
REMARK   65  A    between atoms: _140  and  _141
REMARK   66  A    between atoms: _141  and  _142
REMARK   67  A    between atoms: _146  and  _148
REMARK   68  A    between atoms: _148  and  _149
REMARK   69  A    between atoms: _148  and  _151
REMARK   70  A    between atoms: _151  and  _152
REMARK   71  A    between atoms: _152  and  _153
REMARK   72  A    between atoms: _155  and  _157
REMARK   73  A    between atoms: _157  and  _158
REMARK   74  A    between atoms: _157  and  _160
REMARK   75  A    between atoms: _160  and  _161
REMARK   76  A    between atoms: _166  and  _168
REMARK   77  A    between atoms: _168  and  _169
REMARK   78  A    between atoms: _168  and  _171
REMARK   79  A    between atoms: _171  and  _172
REMARK   80  A    between atoms: _172  and  _173
REMARK   81  A    between atoms: _176  and  _178
REMARK   82  A    between atoms: _178  and  _179
REMARK   83  A    between atoms: _178  and  _181
REMARK   84  A    between atoms: _184  and  _186
REMARK   85  A    between atoms: _186  and  _187
REMARK   86  A    between atoms: _186  and  _189
REMARK   87  A    between atoms: _189  and  _190
REMARK   88  A    between atoms: _190  and  _191
REMARK   89  A    between atoms: _193  and  _195
REMARK   90  A    between atoms: _195  and  _196
REMARK   91  A    between atoms: _195  and  _198
REMARK   92  A    between atoms: _201  and  _203
REMARK   93  A    between atoms: _203  and  _204
REMARK   94  A    between atoms: _203  and  _206
REMARK   95  A    between atoms: _209  and  _211
REMARK   96  A    between atoms: _211  and  _212
REMARK   97  A    between atoms: _211  and  _214
REMARK   98  A    between atoms: _214  and  _215
REMARK   99  A    between atoms: _215  and  _216
REMARK  100  A    between atoms: _219  and  _221
REMARK  101  A    between atoms: _221  and  _222
REMARK  102  A    between atoms: _221  and  _224
REMARK  103  A    between atoms: _224  and  _225
REMARK  104  A    between atoms: _225  and  _226
REMARK  105  A    between atoms: _228  and  _230
REMARK  106  A    between atoms: _230  and  _231
REMARK  107  A    between atoms: _230  and  _233
REMARK  108  A    between atoms: _233  and  _234
REMARK  109  A    between atoms: _239  and  _240
REMARK  110  A    between atoms: _242  and  _244
REMARK  111  A    between atoms: _244  and  _245
REMARK  112  A    between atoms: _244  and  _247
REMARK  113  A    between atoms: _247  and  _248
REMARK  114  A    between atoms: _253  and  _255
REMARK  115  A    between atoms: _255  and  _256
REMARK  116  A    between atoms: _255  and  _258
REMARK  117  A    between atoms: _258  and  _259
REMARK  118  A    between atoms: _269  and  _271
REMARK  119  A    between atoms: _271  and  _272
REMARK  120  A    between atoms: _271  and  _274
REMARK  121  A    between atoms: _277  and  _279
REMARK  122  A    between atoms: _279  and  _280
REMARK  123  A    between atoms: _279  and  _282
REMARK  124  A    between atoms: _285  and  _287
REMARK  125  A    between atoms: _287  and  _288
REMARK  126  A    between atoms: _287  and  _290
REMARK  127  A    between atoms: _290  and  _291
REMARK  128  A    between atoms: _291  and  _292
REMARK  129  A    between atoms: _294  and  _296
REMARK  130  A    between atoms: _296  and  _297
REMARK  131  A    between atoms: _296  and  _299
REMARK  132  A    between atoms: _299  and  _300
REMARK  133  A    between atoms: _300  and  _301
REMARK  134  A    between atoms: _304  and  _306
REMARK  135  A    between atoms: _306  and  _307
REMARK  136  A    between atoms: _306  and  _309
REMARK  137  A    between atoms: _309  and  _310
REMARK  138  A    between atoms: _316  and  _318
REMARK  139  A    between atoms: _318  and  _319
REMARK  140  A    between atoms: _318  and  _321
REMARK  141  A    between atoms: _321  and  _322
REMARK  142  A    between atoms: _325  and  _327
REMARK  143  A    between atoms: _327  and  _328
REMARK  144  A    between atoms: _327  and  _330
REMARK  145  A    between atoms: _330  and  _331
REMARK  146  A    between atoms: _331  and  _332
REMARK  147  A    between atoms: _335  and  _337
REMARK  148  A    between atoms: _337  and  _338
REMARK  149  A    between atoms: _340  and  _342
REMARK  150  A    between atoms: _342  and  _343
REMARK  151  A    between atoms: _345  and  _347
REMARK  152  A    between atoms: _347  and  _348
REMARK  153  A    between atoms: _351  and  _353
REMARK  154  A    between atoms: _353  and  _354
REMARK  155  A    between atoms: _353  and  _356
REMARK  156  A    between atoms: _356  and  _357
REMARK  157  A    between atoms: _360  and  _362
REMARK  158  A    between atoms: _362  and  _363
REMARK  159  A    between atoms: _362  and  _365
REMARK  160  A    between atoms: _365  and  _366
REMARK  161  A    between atoms: _369  and  _371
REMARK  162  A    between atoms: _371  and  _372
REMARK  163  A    between atoms: _371  and  _374
REMARK  164  A    between atoms: _374  and  _375
REMARK  165  A    between atoms: _378  and  _380
REMARK  166  A    between atoms: _380  and  _381
REMARK  167  A    between atoms: _380  and  _383
REMARK  168  A    between atoms: _383  and  _384
REMARK  169  A    between atoms: _389  and  _391
REMARK  170  A    between atoms: _391  and  _392
REMARK  171  A    between atoms: _391  and  _394
REMARK  172  A    between atoms: _394  and  _395
REMARK  173  A    between atoms: _397  and  _399
REMARK  174  A    between atoms: _399  and  _400
REMARK  175  A    between atoms: _399  and  _402
REMARK  176  A    between atoms: _402  and  _403
REMARK  177  A    between atoms: _406  and  _408
REMARK  178  A    between atoms: _408  and  _409
REMARK  179  A    between atoms: _408  and  _411
REMARK  180  A    between atoms: _411  and  _412
REMARK  181  A    between atoms: _414  and  _416
REMARK  182  A    between atoms: _416  and  _417
REMARK  183  A    between atoms: _416  and  _419
REMARK  184  A    between atoms: _419  and  _420
REMARK  185  A    between atoms: _423  and  _425
REMARK  186  A    between atoms: _425  and  _426
REMARK  187  A    between atoms: _425  and  _428
REMARK  188  A    between atoms: _428  and  _429
REMARK  189  A    between atoms: _432  and  _434
REMARK  190  A    between atoms: _434  and  _435
REMARK  191  A    between atoms: _434  and  _437
REMARK  192  A    between atoms: _437  and  _438
REMARK  193  A    between atoms: _441  and  _443
REMARK  194  A    between atoms: _443  and  _444
REMARK  195  A    between atoms: _443  and  _446
REMARK  196  A    between atoms: _446  and  _447
REMARK  197  A    between atoms: _450  and  _452
REMARK  198  A    between atoms: _452  and  _453
REMARK  199  A    between atoms: _452  and  _455
REMARK  200  A    between atoms: _455  and  _456
REMARK  201  A    between atoms: _458  and  _460
REMARK  202  A    between atoms: _460  and  _461
REMARK  203  A    between atoms: _460  and  _463
REMARK  204  A    between atoms: _463  and  _464
REMARK  205  A    between atoms: _467  and  _469
REMARK  206  A    between atoms: _469  and  _470
REMARK  207  A    between atoms: _469  and  _472
REMARK  208  A    between atoms: _472  and  _473
REMARK  209  A    between atoms: _479  and  _481
REMARK  210  A    between atoms: _481  and  _482
REMARK  211  A    between atoms: _484  and  _486
REMARK  212  A    between atoms: _486  and  _487
REMARK  213  A    between atoms: _486  and  _489
REMARK  214  A    between atoms: _489  and  _490
REMARK  215  A    between atoms: _496  and  _498
REMARK  216  A    between atoms: _498  and  _499
REMARK  217  A    between atoms: _498  and  _501
REMARK                            x       y       z     vdW  Elec       q    Type
REMARK                         _______ _______ _______ _____ _____    ______ ____
ROOT
ATOM      1  O   HOH     1      16.337 -31.761   7.233  0.00  0.00    +0.000 OA
ENDROOT
TORSDOF 0
REMARK  Name = ../refined-set-2016/4o0y/4o0y_pocket.pdb
REMARK  217 active torsions:
REMARK  status: ('A' for Active; 'I' for Inactive)
REMARK    1  A    between atoms: _1  and  _3
REMARK    2  A    between atoms: _3  and  _4
REMARK    3  A    between atoms: _3  and  _6
REMARK    4  A    between atoms: _6  and  _7
REMARK    5  A    between atoms: _7  and  _8
REMARK    6  A    between atoms: _8  and  _9
REMARK    7  A    between atoms: _9  and  _10
REMARK    8  A    between atoms: _14  and  _16
REMARK    9  A    between atoms: _16  and  _17
REMARK   10  A    between atoms: _16  and  _19
REMARK   11  A    between atoms: _19  and  _20
REMARK   12  A    between atoms: _23  and  _25
REMARK   13  A    between atoms: _25  and  _26
REMARK   14  A    between atoms: _28  and  _30
REMARK   15  A    between atoms: _30  and  _31
REMARK   16  A    between atoms: _30  and  _33
REMARK   17  A    between atoms: _33  and  _34
REMARK   18  A    between atoms: _34  and  _35
REMARK   19  A    between atoms: _38  and  _40
REMARK   20  A    between atoms: _40  and  _41
REMARK   21  A    between atoms: _43  and  _45
REMARK   22  A    between atoms: _45  and  _46
REMARK   23  A    between atoms: _45  and  _48
REMARK   24  A    between atoms: _48  and  _49
REMARK   25  A    between atoms: _51  and  _53
REMARK   26  A    between atoms: _53  and  _54
REMARK   27  A    between atoms: _53  and  _56
REMARK   28  A    between atoms: _56  and  _57
REMARK   29  A    between atoms: _60  and  _62
REMARK   30  A    between atoms: _62  and  _63
REMARK   31  A    between atoms: _65  and  _67
REMARK   32  A    between atoms: _67  and  _68
REMARK   33  A    between atoms: _67  and  _70
REMARK   34  A    between atoms: _70  and  _71
REMARK   35  A    between atoms: _74  and  _76
REMARK   36  A    between atoms: _76  and  _77
REMARK   37  A    between atoms: _76  and  _79
REMARK   38  A    between atoms: _82  and  _84
REMARK   39  A    between atoms: _84  and  _85
REMARK   40  A    between atoms: _84  and  _87
REMARK   41  A    between atoms: _89  and  _91
REMARK   42  A    between atoms: _91  and  _92
REMARK   43  A    between atoms: _91  and  _94
REMARK   44  A    between atoms: _94  and  _95
REMARK   45  A    between atoms: _98  and  _100
REMARK   46  A    between atoms: _100  and  _101
REMARK   47  A    between atoms: _100  and  _103
REMARK   48  A    between atoms: _106  and  _108
REMARK   49  A    between atoms: _108  and  _109
REMARK   50  A    between atoms: _112  and  _114
REMARK   51  A    between atoms: _114  and  _115
REMARK   52  A    between atoms: _114  and  _117
REMARK   53  A    between atoms: _120  and  _122
REMARK   54  A    between atoms: _122  and  _123
REMARK   55  A    between atoms: _122  and  _125
REMARK   56  A    between atoms: _125  and  _126
REMARK   57  A    between atoms: _126  and  _127
REMARK   58  A    between atoms: _127  and  _128
REMARK   59  A    between atoms: _128  and  _129
REMARK   60  A    between atoms: _133  and  _135
REMARK   61  A    between atoms: _135  and  _136
REMARK   62  A    between atoms: _135  and  _138
REMARK   63  A    between atoms: _138  and  _139
REMARK   64  A    between atoms: _139  and  _140
REMARK   65  A    between atoms: _140  and  _141
REMARK   66  A    between atoms: _141  and  _142
REMARK   67  A    between atoms: _146  and  _148
REMARK   68  A    between atoms: _148  and  _149
REMARK   69  A    between atoms: _148  and  _151
REMARK   70  A    between atoms: _151  and  _152
REMARK   71  A    between atoms: _152  and  _153
REMARK   72  A    between atoms: _155  and  _157
REMARK   73  A    between atoms: _157  and  _158
REMARK   74  A    between atoms: _157  and  _160
REMARK   75  A    between atoms: _160  and  _161
REMARK   76  A    between atoms: _166  and  _168
REMARK   77  A    between atoms: _168  and  _169
REMARK   78  A    between atoms: _168  and  _171
REMARK   79  A    between atoms: _171  and  _172
REMARK   80  A    between atoms: _172  and  _173
REMARK   81  A    between atoms: _176  and  _178
REMARK   82  A    between atoms: _178  and  _179
REMARK   83  A    between atoms: _178  and  _181
REMARK   84  A    between atoms: _184  and  _186
REMARK   85  A    between atoms: _186  and  _187
REMARK   86  A    between atoms: _186  and  _189
REMARK   87  A    between atoms: _189  and  _190
REMARK   88  A    between atoms: _190  and  _191
REMARK   89  A    between atoms: _193  and  _195
REMARK   90  A    between atoms: _195  and  _196
REMARK   91  A    between atoms: _195  and  _198
REMARK   92  A    between atoms: _201  and  _203
REMARK   93  A    between atoms: _203  and  _204
REMARK   94  A    between atoms: _203  and  _206
REMARK   95  A    between atoms: _209  and  _211
REMARK   96  A    between atoms: _211  and  _212
REMARK   97  A    between atoms: _211  and  _214
REMARK   98  A    between atoms: _214  and  _215
REMARK   99  A    between atoms: _215  and  _216
REMARK  100  A    between atoms: _219  and  _221
REMARK  101  A    between atoms: _221  and  _222
REMARK  102  A    between atoms: _221  and  _224
REMARK  103  A    between atoms: _224  and  _225
REMARK  104  A    between atoms: _225  and  _226
REMARK  105  A    between atoms: _228  and  _230
REMARK  106  A    between atoms: _230  and  _231
REMARK  107  A    between atoms: _230  and  _233
REMARK  108  A    between atoms: _233  and  _234
REMARK  109  A    between atoms: _239  and  _240
REMARK  110  A    between atoms: _242  and  _244
REMARK  111  A    between atoms: _244  and  _245
REMARK  112  A    between atoms: _244  and  _247
REMARK  113  A    between atoms: _247  and  _248
REMARK  114  A    between atoms: _253  and  _255
REMARK  115  A    between atoms: _255  and  _256
REMARK  116  A    between atoms: _255  and  _258
REMARK  117  A    between atoms: _258  and  _259
REMARK  118  A    between atoms: _269  and  _271
REMARK  119  A    between atoms: _271  and  _272
REMARK  120  A    between atoms: _271  and  _274
REMARK  121  A    between atoms: _277  and  _279
REMARK  122  A    between atoms: _279  and  _280
REMARK  123  A    between atoms: _279  and  _282
REMARK  124  A    between atoms: _285  and  _287
REMARK  125  A    between atoms: _287  and  _288
REMARK  126  A    between atoms: _287  and  _290
REMARK  127  A    between atoms: _290  and  _291
REMARK  128  A    between atoms: _291  and  _292
REMARK  129  A    between atoms: _294  and  _296
REMARK  130  A    between atoms: _296  and  _297
REMARK  131  A    between atoms: _296  and  _299
REMARK  132  A    between atoms: _299  and  _300
REMARK  133  A    between atoms: _300  and  _301
REMARK  134  A    between atoms: _304  and  _306
REMARK  135  A    between atoms: _306  and  _307
REMARK  136  A    between atoms: _306  and  _309
REMARK  137  A    between atoms: _309  and  _310
REMARK  138  A    between atoms: _316  and  _318
REMARK  139  A    between atoms: _318  and  _319
REMARK  140  A    between atoms: _318  and  _321
REMARK  141  A    between atoms: _321  and  _322
REMARK  142  A    between atoms: _325  and  _327
REMARK  143  A    between atoms: _327  and  _328
REMARK  144  A    between atoms: _327  and  _330
REMARK  145  A    between atoms: _330  and  _331
REMARK  146  A    between atoms: _331  and  _332
REMARK  147  A    between atoms: _335  and  _337
REMARK  148  A    between atoms: _337  and  _338
REMARK  149  A    between atoms: _340  and  _342
REMARK  150  A    between atoms: _342  and  _343
REMARK  151  A    between atoms: _345  and  _347
REMARK  152  A    between atoms: _347  and  _348
REMARK  153  A    between atoms: _351  and  _353
REMARK  154  A    between atoms: _353  and  _354
REMARK  155  A    between atoms: _353  and  _356
REMARK  156  A    between atoms: _356  and  _357
REMARK  157  A    between atoms: _360  and  _362
REMARK  158  A    between atoms: _362  and  _363
REMARK  159  A    between atoms: _362  and  _365
REMARK  160  A    between atoms: _365  and  _366
REMARK  161  A    between atoms: _369  and  _371
REMARK  162  A    between atoms: _371  and  _372
REMARK  163  A    between atoms: _371  and  _374
REMARK  164  A    between atoms: _374  and  _375
REMARK  165  A    between atoms: _378  and  _380
REMARK  166  A    between atoms: _380  and  _381
REMARK  167  A    between atoms: _380  and  _383
REMARK  168  A    between atoms: _383  and  _384
REMARK  169  A    between atoms: _389  and  _391
REMARK  170  A    between atoms: _391  and  _392
REMARK  171  A    between atoms: _391  and  _394
REMARK  172  A    between atoms: _394  and  _395
REMARK  173  A    between atoms: _397  and  _399
REMARK  174  A    between atoms: _399  and  _400
REMARK  175  A    between atoms: _399  and  _402
REMARK  176  A    between atoms: _402  and  _403
REMARK  177  A    between atoms: _406  and  _408
REMARK  178  A    between atoms: _408  and  _409
REMARK  179  A    between atoms: _408  and  _411
REMARK  180  A    between atoms: _411  and  _412
REMARK  181  A    between atoms: _414  and  _416
REMARK  182  A    between atoms: _416  and  _417
REMARK  183  A    between atoms: _416  and  _419
REMARK  184  A    between atoms: _419  and  _420
REMARK  185  A    between atoms: _423  and  _425
REMARK  186  A    between atoms: _425  and  _426
REMARK  187  A    between atoms: _425  and  _428
REMARK  188  A    between atoms: _428  and  _429
REMARK  189  A    between atoms: _432  and  _434
REMARK  190  A    between atoms: _434  and  _435
REMARK  191  A    between atoms: _434  and  _437
REMARK  192  A    between atoms: _437  and  _438
REMARK  193  A    between atoms: _441  and  _443
REMARK  194  A    between atoms: _443  and  _444
REMARK  195  A    between atoms: _443  and  _446
REMARK  196  A    between atoms: _446  and  _447
REMARK  197  A    between atoms: _450  and  _452
REMARK  198  A    between atoms: _452  and  _453
REMARK  199  A    between atoms: _452  and  _455
REMARK  200  A    between atoms: _455  and  _456
REMARK  201  A    between atoms: _458  and  _460
REMARK  202  A    between atoms: _460  and  _461
REMARK  203  A    between atoms: _460  and  _463
REMARK  204  A    between atoms: _463  and  _464
REMARK  205  A    between atoms: _467  and  _469
REMARK  206  A    between atoms: _469  and  _470
REMARK  207  A    between atoms: _469  and  _472
REMARK  208  A    between atoms: _472  and  _473
REMARK  209  A    between atoms: _479  and  _481
REMARK  210  A    between atoms: _481  and  _482
REMARK  211  A    between atoms: _484  and  _486
REMARK  212  A    between atoms: _486  and  _487
REMARK  213  A    between atoms: _486  and  _489
REMARK  214  A    between atoms: _489  and  _490
REMARK  215  A    between atoms: _496  and  _498
REMARK  216  A    between atoms: _498  and  _499
REMARK  217  A    between atoms: _498  and  _501
REMARK                            x       y       z     vdW  Elec       q    Type
REMARK                         _______ _______ _______ _____ _____    ______ ____
ROOT
ATOM      1  O   HOH     1       3.168 -35.322  20.786  0.00  0.00    +0.000 OA
ENDROOT
TORSDOF 0
REMARK  Name = ../refined-set-2016/4o0y/4o0y_pocket.pdb
REMARK  217 active torsions:
REMARK  status: ('A' for Active; 'I' for Inactive)
REMARK    1  A    between atoms: _1  and  _3
REMARK    2  A    between atoms: _3  and  _4
REMARK    3  A    between atoms: _3  and  _6
REMARK    4  A    between atoms: _6  and  _7
REMARK    5  A    between atoms: _7  and  _8
REMARK    6  A    between atoms: _8  and  _9
REMARK    7  A    between atoms: _9  and  _10
REMARK    8  A    between atoms: _14  and  _16
REMARK    9  A    between atoms: _16  and  _17
REMARK   10  A    between atoms: _16  and  _19
REMARK   11  A    between atoms: _19  and  _20
REMARK   12  A    between atoms: _23  and  _25
REMARK   13  A    between atoms: _25  and  _26
REMARK   14  A    between atoms: _28  and  _30
REMARK   15  A    between atoms: _30  and  _31
REMARK   16  A    between atoms: _30  and  _33
REMARK   17  A    between atoms: _33  and  _34
REMARK   18  A    between atoms: _34  and  _35
REMARK   19  A    between atoms: _38  and  _40
REMARK   20  A    between atoms: _40  and  _41
REMARK   21  A    between atoms: _43  and  _45
REMARK   22  A    between atoms: _45  and  _46
REMARK   23  A    between atoms: _45  and  _48
REMARK   24  A    between atoms: _48  and  _49
REMARK   25  A    between atoms: _51  and  _53
REMARK   26  A    between atoms: _53  and  _54
REMARK   27  A    between atoms: _53  and  _56
REMARK   28  A    between atoms: _56  and  _57
REMARK   29  A    between atoms: _60  and  _62
REMARK   30  A    between atoms: _62  and  _63
REMARK   31  A    between atoms: _65  and  _67
REMARK   32  A    between atoms: _67  and  _68
REMARK   33  A    between atoms: _67  and  _70
REMARK   34  A    between atoms: _70  and  _71
REMARK   35  A    between atoms: _74  and  _76
REMARK   36  A    between atoms: _76  and  _77
REMARK   37  A    between atoms: _76  and  _79
REMARK   38  A    between atoms: _82  and  _84
REMARK   39  A    between atoms: _84  and  _85
REMARK   40  A    between atoms: _84  and  _87
REMARK   41  A    between atoms: _89  and  _91
REMARK   42  A    between atoms: _91  and  _92
REMARK   43  A    between atoms: _91  and  _94
REMARK   44  A    between atoms: _94  and  _95
REMARK   45  A    between atoms: _98  and  _100
REMARK   46  A    between atoms: _100  and  _101
REMARK   47  A    between atoms: _100  and  _103
REMARK   48  A    between atoms: _106  and  _108
REMARK   49  A    between atoms: _108  and  _109
REMARK   50  A    between atoms: _112  and  _114
REMARK   51  A    between atoms: _114  and  _115
REMARK   52  A    between atoms: _114  and  _117
REMARK   53  A    between atoms: _120  and  _122
REMARK   54  A    between atoms: _122  and  _123
REMARK   55  A    between atoms: _122  and  _125
REMARK   56  A    between atoms: _125  and  _126
REMARK   57  A    between atoms: _126  and  _127
REMARK   58  A    between atoms: _127  and  _128
REMARK   59  A    between atoms: _128  and  _129
REMARK   60  A    between atoms: _133  and  _135
REMARK   61  A    between atoms: _135  and  _136
REMARK   62  A    between atoms: _135  and  _138
REMARK   63  A    between atoms: _138  and  _139
REMARK   64  A    between atoms: _139  and  _140
REMARK   65  A    between atoms: _140  and  _141
REMARK   66  A    between atoms: _141  and  _142
REMARK   67  A    between atoms: _146  and  _148
REMARK   68  A    between atoms: _148  and  _149
REMARK   69  A    between atoms: _148  and  _151
REMARK   70  A    between atoms: _151  and  _152
REMARK   71  A    between atoms: _152  and  _153
REMARK   72  A    between atoms: _155  and  _157
REMARK   73  A    between atoms: _157  and  _158
REMARK   74  A    between atoms: _157  and  _160
REMARK   75  A    between atoms: _160  and  _161
REMARK   76  A    between atoms: _166  and  _168
REMARK   77  A    between atoms: _168  and  _169
REMARK   78  A    between atoms: _168  and  _171
REMARK   79  A    between atoms: _171  and  _172
REMARK   80  A    between atoms: _172  and  _173
REMARK   81  A    between atoms: _176  and  _178
REMARK   82  A    between atoms: _178  and  _179
REMARK   83  A    between atoms: _178  and  _181
REMARK   84  A    between atoms: _184  and  _186
REMARK   85  A    between atoms: _186  and  _187
REMARK   86  A    between atoms: _186  and  _189
REMARK   87  A    between atoms: _189  and  _190
REMARK   88  A    between atoms: _190  and  _191
REMARK   89  A    between atoms: _193  and  _195
REMARK   90  A    between atoms: _195  and  _196
REMARK   91  A    between atoms: _195  and  _198
REMARK   92  A    between atoms: _201  and  _203
REMARK   93  A    between atoms: _203  and  _204
REMARK   94  A    between atoms: _203  and  _206
REMARK   95  A    between atoms: _209  and  _211
REMARK   96  A    between atoms: _211  and  _212
REMARK   97  A    between atoms: _211  and  _214
REMARK   98  A    between atoms: _214  and  _215
REMARK   99  A    between atoms: _215  and  _216
REMARK  100  A    between atoms: _219  and  _221
REMARK  101  A    between atoms: _221  and  _222
REMARK  102  A    between atoms: _221  and  _224
REMARK  103  A    between atoms: _224  and  _225
REMARK  104  A    between atoms: _225  and  _226
REMARK  105  A    between atoms: _228  and  _230
REMARK  106  A    between atoms: _230  and  _231
REMARK  107  A    between atoms: _230  and  _233
REMARK  108  A    between atoms: _233  and  _234
REMARK  109  A    between atoms: _239  and  _240
REMARK  110  A    between atoms: _242  and  _244
REMARK  111  A    between atoms: _244  and  _245
REMARK  112  A    between atoms: _244  and  _247
REMARK  113  A    between atoms: _247  and  _248
REMARK  114  A    between atoms: _253  and  _255
REMARK  115  A    between atoms: _255  and  _256
REMARK  116  A    between atoms: _255  and  _258
REMARK  117  A    between atoms: _258  and  _259
REMARK  118  A    between atoms: _269  and  _271
REMARK  119  A    between atoms: _271  and  _272
REMARK  120  A    between atoms: _271  and  _274
REMARK  121  A    between atoms: _277  and  _279
REMARK  122  A    between atoms: _279  and  _280
REMARK  123  A    between atoms: _279  and  _282
REMARK  124  A    between atoms: _285  and  _287
REMARK  125  A    between atoms: _287  and  _288
REMARK  126  A    between atoms: _287  and  _290
REMARK  127  A    between atoms: _290  and  _291
REMARK  128  A    between atoms: _291  and  _292
REMARK  129  A    between atoms: _294  and  _296
REMARK  130  A    between atoms: _296  and  _297
REMARK  131  A    between atoms: _296  and  _299
REMARK  132  A    between atoms: _299  and  _300
REMARK  133  A    between atoms: _300  and  _301
REMARK  134  A    between atoms: _304  and  _306
REMARK  135  A    between atoms: _306  and  _307
REMARK  136  A    between atoms: _306  and  _309
REMARK  137  A    between atoms: _309  and  _310
REMARK  138  A    between atoms: _316  and  _318
REMARK  139  A    between atoms: _318  and  _319
REMARK  140  A    between atoms: _318  and  _321
REMARK  141  A    between atoms: _321  and  _322
REMARK  142  A    between atoms: _325  and  _327
REMARK  143  A    between atoms: _327  and  _328
REMARK  144  A    between atoms: _327  and  _330
REMARK  145  A    between atoms: _330  and  _331
REMARK  146  A    between atoms: _331  and  _332
REMARK  147  A    between atoms: _335  and  _337
REMARK  148  A    between atoms: _337  and  _338
REMARK  149  A    between atoms: _340  and  _342
REMARK  150  A    between atoms: _342  and  _343
REMARK  151  A    between atoms: _345  and  _347
REMARK  152  A    between atoms: _347  and  _348
REMARK  153  A    between atoms: _351  and  _353
REMARK  154  A    between atoms: _353  and  _354
REMARK  155  A    between atoms: _353  and  _356
REMARK  156  A    between atoms: _356  and  _357
REMARK  157  A    between atoms: _360  and  _362
REMARK  158  A    between atoms: _362  and  _363
REMARK  159  A    between atoms: _362  and  _365
REMARK  160  A    between atoms: _365  and  _366
REMARK  161  A    between atoms: _369  and  _371
REMARK  162  A    between atoms: _371  and  _372
REMARK  163  A    between atoms: _371  and  _374
REMARK  164  A    between atoms: _374  and  _375
REMARK  165  A    between atoms: _378  and  _380
REMARK  166  A    between atoms: _380  and  _381
REMARK  167  A    between atoms: _380  and  _383
REMARK  168  A    between atoms: _383  and  _384
REMARK  169  A    between atoms: _389  and  _391
REMARK  170  A    between atoms: _391  and  _392
REMARK  171  A    between atoms: _391  and  _394
REMARK  172  A    between atoms: _394  and  _395
REMARK  173  A    between atoms: _397  and  _399
REMARK  174  A    between atoms: _399  and  _400
REMARK  175  A    between atoms: _399  and  _402
REMARK  176  A    between atoms: _402  and  _403
REMARK  177  A    between atoms: _406  and  _408
REMARK  178  A    between atoms: _408  and  _409
REMARK  179  A    between atoms: _408  and  _411
REMARK  180  A    between atoms: _411  and  _412
REMARK  181  A    between atoms: _414  and  _416
REMARK  182  A    between atoms: _416  and  _417
REMARK  183  A    between atoms: _416  and  _419
REMARK  184  A    between atoms: _419  and  _420
REMARK  185  A    between atoms: _423  and  _425
REMARK  186  A    between atoms: _425  and  _426
REMARK  187  A    between atoms: _425  and  _428
REMARK  188  A    between atoms: _428  and  _429
REMARK  189  A    between atoms: _432  and  _434
REMARK  190  A    between atoms: _434  and  _435
REMARK  191  A    between atoms: _434  and  _437
REMARK  192  A    between atoms: _437  and  _438
REMARK  193  A    between atoms: _441  and  _443
REMARK  194  A    between atoms: _443  and  _444
REMARK  195  A    between atoms: _443  and  _446
REMARK  196  A    between atoms: _446  and  _447
REMARK  197  A    between atoms: _450  and  _452
REMARK  198  A    between atoms: _452  and  _453
REMARK  199  A    between atoms: _452  and  _455
REMARK  200  A    between atoms: _455  and  _456
REMARK  201  A    between atoms: _458  and  _460
REMARK  202  A    between atoms: _460  and  _461
REMARK  203  A    between atoms: _460  and  _463
REMARK  204  A    between atoms: _463  and  _464
REMARK  205  A    between atoms: _467  and  _469
REMARK  206  A    between atoms: _469  and  _470
REMARK  207  A    between atoms: _469  and  _472
REMARK  208  A    between atoms: _472  and  _473
REMARK  209  A    between atoms: _479  and  _481
REMARK  210  A    between atoms: _481  and  _482
REMARK  211  A    between atoms: _484  and  _486
REMARK  212  A    between atoms: _486  and  _487
REMARK  213  A    between atoms: _486  and  _489
REMARK  214  A    between atoms: _489  and  _490
REMARK  215  A    between atoms: _496  and  _498
REMARK  216  A    between atoms: _498  and  _499
REMARK  217  A    between atoms: _498  and  _501
REMARK                            x       y       z     vdW  Elec       q    Type
REMARK                         _______ _______ _______ _____ _____    ______ ____
ROOT
ATOM      1  O   HOH     1       2.267 -36.879  19.434  0.00  0.00    +0.000 OA
ENDROOT
TORSDOF 0
REMARK  Name = ../refined-set-2016/4o0y/4o0y_pocket.pdb
REMARK  217 active torsions:
REMARK  status: ('A' for Active; 'I' for Inactive)
REMARK    1  A    between atoms: _1  and  _3
REMARK    2  A    between atoms: _3  and  _4
REMARK    3  A    between atoms: _3  and  _6
REMARK    4  A    between atoms: _6  and  _7
REMARK    5  A    between atoms: _7  and  _8
REMARK    6  A    between atoms: _8  and  _9
REMARK    7  A    between atoms: _9  and  _10
REMARK    8  A    between atoms: _14  and  _16
REMARK    9  A    between atoms: _16  and  _17
REMARK   10  A    between atoms: _16  and  _19
REMARK   11  A    between atoms: _19  and  _20
REMARK   12  A    between atoms: _23  and  _25
REMARK   13  A    between atoms: _25  and  _26
REMARK   14  A    between atoms: _28  and  _30
REMARK   15  A    between atoms: _30  and  _31
REMARK   16  A    between atoms: _30  and  _33
REMARK   17  A    between atoms: _33  and  _34
REMARK   18  A    between atoms: _34  and  _35
REMARK   19  A    between atoms: _38  and  _40
REMARK   20  A    between atoms: _40  and  _41
REMARK   21  A    between atoms: _43  and  _45
REMARK   22  A    between atoms: _45  and  _46
REMARK   23  A    between atoms: _45  and  _48
REMARK   24  A    between atoms: _48  and  _49
REMARK   25  A    between atoms: _51  and  _53
REMARK   26  A    between atoms: _53  and  _54
REMARK   27  A    between atoms: _53  and  _56
REMARK   28  A    between atoms: _56  and  _57
REMARK   29  A    between atoms: _60  and  _62
REMARK   30  A    between atoms: _62  and  _63
REMARK   31  A    between atoms: _65  and  _67
REMARK   32  A    between atoms: _67  and  _68
REMARK   33  A    between atoms: _67  and  _70
REMARK   34  A    between atoms: _70  and  _71
REMARK   35  A    between atoms: _74  and  _76
REMARK   36  A    between atoms: _76  and  _77
REMARK   37  A    between atoms: _76  and  _79
REMARK   38  A    between atoms: _82  and  _84
REMARK   39  A    between atoms: _84  and  _85
REMARK   40  A    between atoms: _84  and  _87
REMARK   41  A    between atoms: _89  and  _91
REMARK   42  A    between atoms: _91  and  _92
REMARK   43  A    between atoms: _91  and  _94
REMARK   44  A    between atoms: _94  and  _95
REMARK   45  A    between atoms: _98  and  _100
REMARK   46  A    between atoms: _100  and  _101
REMARK   47  A    between atoms: _100  and  _103
REMARK   48  A    between atoms: _106  and  _108
REMARK   49  A    between atoms: _108  and  _109
REMARK   50  A    between atoms: _112  and  _114
REMARK   51  A    between atoms: _114  and  _115
REMARK   52  A    between atoms: _114  and  _117
REMARK   53  A    between atoms: _120  and  _122
REMARK   54  A    between atoms: _122  and  _123
REMARK   55  A    between atoms: _122  and  _125
REMARK   56  A    between atoms: _125  and  _126
REMARK   57  A    between atoms: _126  and  _127
REMARK   58  A    between atoms: _127  and  _128
REMARK   59  A    between atoms: _128  and  _129
REMARK   60  A    between atoms: _133  and  _135
REMARK   61  A    between atoms: _135  and  _136
REMARK   62  A    between atoms: _135  and  _138
REMARK   63  A    between atoms: _138  and  _139
REMARK   64  A    between atoms: _139  and  _140
REMARK   65  A    between atoms: _140  and  _141
REMARK   66  A    between atoms: _141  and  _142
REMARK   67  A    between atoms: _146  and  _148
REMARK   68  A    between atoms: _148  and  _149
REMARK   69  A    between atoms: _148  and  _151
REMARK   70  A    between atoms: _151  and  _152
REMARK   71  A    between atoms: _152  and  _153
REMARK   72  A    between atoms: _155  and  _157
REMARK   73  A    between atoms: _157  and  _158
REMARK   74  A    between atoms: _157  and  _160
REMARK   75  A    between atoms: _160  and  _161
REMARK   76  A    between atoms: _166  and  _168
REMARK   77  A    between atoms: _168  and  _169
REMARK   78  A    between atoms: _168  and  _171
REMARK   79  A    between atoms: _171  and  _172
REMARK   80  A    between atoms: _172  and  _173
REMARK   81  A    between atoms: _176  and  _178
REMARK   82  A    between atoms: _178  and  _179
REMARK   83  A    between atoms: _178  and  _181
REMARK   84  A    between atoms: _184  and  _186
REMARK   85  A    between atoms: _186  and  _187
REMARK   86  A    between atoms: _186  and  _189
REMARK   87  A    between atoms: _189  and  _190
REMARK   88  A    between atoms: _190  and  _191
REMARK   89  A    between atoms: _193  and  _195
REMARK   90  A    between atoms: _195  and  _196
REMARK   91  A    between atoms: _195  and  _198
REMARK   92  A    between atoms: _201  and  _203
REMARK   93  A    between atoms: _203  and  _204
REMARK   94  A    between atoms: _203  and  _206
REMARK   95  A    between atoms: _209  and  _211
REMARK   96  A    between atoms: _211  and  _212
REMARK   97  A    between atoms: _211  and  _214
REMARK   98  A    between atoms: _214  and  _215
REMARK   99  A    between atoms: _215  and  _216
REMARK  100  A    between atoms: _219  and  _221
REMARK  101  A    between atoms: _221  and  _222
REMARK  102  A    between atoms: _221  and  _224
REMARK  103  A    between atoms: _224  and  _225
REMARK  104  A    between atoms: _225  and  _226
REMARK  105  A    between atoms: _228  and  _230
REMARK  106  A    between atoms: _230  and  _231
REMARK  107  A    between atoms: _230  and  _233
REMARK  108  A    between atoms: _233  and  _234
REMARK  109  A    between atoms: _239  and  _240
REMARK  110  A    between atoms: _242  and  _244
REMARK  111  A    between atoms: _244  and  _245
REMARK  112  A    between atoms: _244  and  _247
REMARK  113  A    between atoms: _247  and  _248
REMARK  114  A    between atoms: _253  and  _255
REMARK  115  A    between atoms: _255  and  _256
REMARK  116  A    between atoms: _255  and  _258
REMARK  117  A    between atoms: _258  and  _259
REMARK  118  A    between atoms: _269  and  _271
REMARK  119  A    between atoms: _271  and  _272
REMARK  120  A    between atoms: _271  and  _274
REMARK  121  A    between atoms: _277  and  _279
REMARK  122  A    between atoms: _279  and  _280
REMARK  123  A    between atoms: _279  and  _282
REMARK  124  A    between atoms: _285  and  _287
REMARK  125  A    between atoms: _287  and  _288
REMARK  126  A    between atoms: _287  and  _290
REMARK  127  A    between atoms: _290  and  _291
REMARK  128  A    between atoms: _291  and  _292
REMARK  129  A    between atoms: _294  and  _296
REMARK  130  A    between atoms: _296  and  _297
REMARK  131  A    between atoms: _296  and  _299
REMARK  132  A    between atoms: _299  and  _300
REMARK  133  A    between atoms: _300  and  _301
REMARK  134  A    between atoms: _304  and  _306
REMARK  135  A    between atoms: _306  and  _307
REMARK  136  A    between atoms: _306  and  _309
REMARK  137  A    between atoms: _309  and  _310
REMARK  138  A    between atoms: _316  and  _318
REMARK  139  A    between atoms: _318  and  _319
REMARK  140  A    between atoms: _318  and  _321
REMARK  141  A    between atoms: _321  and  _322
REMARK  142  A    between atoms: _325  and  _327
REMARK  143  A    between atoms: _327  and  _328
REMARK  144  A    between atoms: _327  and  _330
REMARK  145  A    between atoms: _330  and  _331
REMARK  146  A    between atoms: _331  and  _332
REMARK  147  A    between atoms: _335  and  _337
REMARK  148  A    between atoms: _337  and  _338
REMARK  149  A    between atoms: _340  and  _342
REMARK  150  A    between atoms: _342  and  _343
REMARK  151  A    between atoms: _345  and  _347
REMARK  152  A    between atoms: _347  and  _348
REMARK  153  A    between atoms: _351  and  _353
REMARK  154  A    between atoms: _353  and  _354
REMARK  155  A    between atoms: _353  and  _356
REMARK  156  A    between atoms: _356  and  _357
REMARK  157  A    between atoms: _360  and  _362
REMARK  158  A    between atoms: _362  and  _363
REMARK  159  A    between atoms: _362  and  _365
REMARK  160  A    between atoms: _365  and  _366
REMARK  161  A    between atoms: _369  and  _371
REMARK  162  A    between atoms: _371  and  _372
REMARK  163  A    between atoms: _371  and  _374
REMARK  164  A    between atoms: _374  and  _375
REMARK  165  A    between atoms: _378  and  _380
REMARK  166  A    between atoms: _380  and  _381
REMARK  167  A    between atoms: _380  and  _383
REMARK  168  A    between atoms: _383  and  _384
REMARK  169  A    between atoms: _389  and  _391
REMARK  170  A    between atoms: _391  and  _392
REMARK  171  A    between atoms: _391  and  _394
REMARK  172  A    between atoms: _394  and  _395
REMARK  173  A    between atoms: _397  and  _399
REMARK  174  A    between atoms: _399  and  _400
REMARK  175  A    between atoms: _399  and  _402
REMARK  176  A    between atoms: _402  and  _403
REMARK  177  A    between atoms: _406  and  _408
REMARK  178  A    between atoms: _408  and  _409
REMARK  179  A    between atoms: _408  and  _411
REMARK  180  A    between atoms: _411  and  _412
REMARK  181  A    between atoms: _414  and  _416
REMARK  182  A    between atoms: _416  and  _417
REMARK  183  A    between atoms: _416  and  _419
REMARK  184  A    between atoms: _419  and  _420
REMARK  185  A    between atoms: _423  and  _425
REMARK  186  A    between atoms: _425  and  _426
REMARK  187  A    between atoms: _425  and  _428
REMARK  188  A    between atoms: _428  and  _429
REMARK  189  A    between atoms: _432  and  _434
REMARK  190  A    between atoms: _434  and  _435
REMARK  191  A    between atoms: _434  and  _437
REMARK  192  A    between atoms: _437  and  _438
REMARK  193  A    between atoms: _441  and  _443
REMARK  194  A    between atoms: _443  and  _444
REMARK  195  A    between atoms: _443  and  _446
REMARK  196  A    between atoms: _446  and  _447
REMARK  197  A    between atoms: _450  and  _452
REMARK  198  A    between atoms: _452  and  _453
REMARK  199  A    between atoms: _452  and  _455
REMARK  200  A    between atoms: _455  and  _456
REMARK  201  A    between atoms: _458  and  _460
REMARK  202  A    between atoms: _460  and  _461
REMARK  203  A    between atoms: _460  and  _463
REMARK  204  A    between atoms: _463  and  _464
REMARK  205  A    between atoms: _467  and  _469
REMARK  206  A    between atoms: _469  and  _470
REMARK  207  A    between atoms: _469  and  _472
REMARK  208  A    between atoms: _472  and  _473
REMARK  209  A    between atoms: _479  and  _481
REMARK  210  A    between atoms: _481  and  _482
REMARK  211  A    between atoms: _484  and  _486
REMARK  212  A    between atoms: _486  and  _487
REMARK  213  A    between atoms: _486  and  _489
REMARK  214  A    between atoms: _489  and  _490
REMARK  215  A    between atoms: _496  and  _498
REMARK  216  A    between atoms: _498  and  _499
REMARK  217  A    between atoms: _498  and  _501
REMARK                            x       y       z     vdW  Elec       q    Type
REMARK                         _______ _______ _______ _____ _____    ______ ____
ROOT
ATOM      1  O   HOH     1       9.456 -21.647  23.512  0.00  0.00    +0.000 OA
ENDROOT
TORSDOF 0
