REMARK  Name = ../refined-set-2016/2bpv/2bpv_pocket.pdb
REMARK  222 active torsions:
REMARK  status: ('A' for Active; 'I' for Inactive)
REMARK    1  A    between atoms: _1  and  _3
REMARK    2  A    between atoms: _3  and  _4
REMARK    3  A    between atoms: _3  and  _6
REMARK    4  A    between atoms: _6  and  _7
REMARK    5  A    between atoms: _7  and  _8
REMARK    6  A    between atoms: _8  and  _9
REMARK    7  A    between atoms: _18  and  _20
REMARK    8  A    between atoms: _20  and  _21
REMARK    9  A    between atoms: _20  and  _23
REMARK   10  A    between atoms: _23  and  _24
REMARK   11  A    between atoms: _27  and  _29
REMARK   12  A    between atoms: _29  and  _30
REMARK   13  A    between atoms: _29  and  _32
REMARK   14  A    between atoms: _32  and  _33
REMARK   15  A    between atoms: _36  and  _38
REMARK   16  A    between atoms: _38  and  _39
REMARK   17  A    between atoms: _38  and  _41
REMARK   18  A    between atoms: _41  and  _42
REMARK   19  A    between atoms: _45  and  _47
REMARK   20  A    between atoms: _47  and  _48
REMARK   21  A    between atoms: _47  and  _50
REMARK   22  A    between atoms: _50  and  _51
REMARK   23  A    between atoms: _54  and  _56
REMARK   24  A    between atoms: _56  and  _57
REMARK   25  A    between atoms: _56  and  _59
REMARK   26  A    between atoms: _59  and  _60
REMARK   27  A    between atoms: _63  and  _65
REMARK   28  A    between atoms: _65  and  _66
REMARK   29  A    between atoms: _68  and  _70
REMARK   30  A    between atoms: _70  and  _71
REMARK   31  A    between atoms: _74  and  _76
REMARK   32  A    between atoms: _76  and  _77
REMARK   33  A    between atoms: _76  and  _79
REMARK   34  A    between atoms: _79  and  _80
REMARK   35  A    between atoms: _83  and  _85
REMARK   36  A    between atoms: _85  and  _86
REMARK   37  A    between atoms: _85  and  _88
REMARK   38  A    between atoms: _88  and  _89
REMARK   39  A    between atoms: _92  and  _94
REMARK   40  A    between atoms: _94  and  _95
REMARK   41  A    between atoms: _94  and  _97
REMARK   42  A    between atoms: _97  and  _98
REMARK   43  A    between atoms: _101  and  _103
REMARK   44  A    between atoms: _103  and  _104
REMARK   45  A    between atoms: _103  and  _106
REMARK   46  A    between atoms: _109  and  _111
REMARK   47  A    between atoms: _111  and  _112
REMARK   48  A    between atoms: _111  and  _114
REMARK   49  A    between atoms: _114  and  _115
REMARK   50  A    between atoms: _115  and  _116
REMARK   51  A    between atoms: _118  and  _120
REMARK   52  A    between atoms: _120  and  _121
REMARK   53  A    between atoms: _120  and  _123
REMARK   54  A    between atoms: _123  and  _124
REMARK   55  A    between atoms: _127  and  _129
REMARK   56  A    between atoms: _129  and  _130
REMARK   57  A    between atoms: _132  and  _134
REMARK   58  A    between atoms: _134  and  _135
REMARK   59  A    between atoms: _137  and  _139
REMARK   60  A    between atoms: _139  and  _140
REMARK   61  A    between atoms: _139  and  _142
REMARK   62  A    between atoms: _142  and  _143
REMARK   63  A    between atoms: _146  and  _148
REMARK   64  A    between atoms: _148  and  _149
REMARK   65  A    between atoms: _151  and  _153
REMARK   66  A    between atoms: _153  and  _154
REMARK   67  A    between atoms: _156  and  _158
REMARK   68  A    between atoms: _158  and  _159
REMARK   69  A    between atoms: _158  and  _161
REMARK   70  A    between atoms: _161  and  _162
REMARK   71  A    between atoms: _168  and  _170
REMARK   72  A    between atoms: _170  and  _171
REMARK   73  A    between atoms: _170  and  _173
REMARK   74  A    between atoms: _173  and  _174
REMARK   75  A    between atoms: _177  and  _179
REMARK   76  A    between atoms: _179  and  _180
REMARK   77  A    between atoms: _179  and  _182
REMARK   78  A    between atoms: _185  and  _187
REMARK   79  A    between atoms: _187  and  _188
REMARK   80  A    between atoms: _187  and  _190
REMARK   81  A    between atoms: _190  and  _191
REMARK   82  A    between atoms: _194  and  _196
REMARK   83  A    between atoms: _196  and  _197
REMARK   84  A    between atoms: _196  and  _199
REMARK   85  A    between atoms: _199  and  _200
REMARK   86  A    between atoms: _204  and  _205
REMARK   87  A    between atoms: _210  and  _212
REMARK   88  A    between atoms: _212  and  _213
REMARK   89  A    between atoms: _212  and  _215
REMARK   90  A    between atoms: _218  and  _220
REMARK   91  A    between atoms: _220  and  _221
REMARK   92  A    between atoms: _220  and  _223
REMARK   93  A    between atoms: _223  and  _224
REMARK   94  A    between atoms: _229  and  _231
REMARK   95  A    between atoms: _231  and  _232
REMARK   96  A    between atoms: _231  and  _234
REMARK   97  A    between atoms: _234  and  _235
REMARK   98  A    between atoms: _238  and  _240
REMARK   99  A    between atoms: _240  and  _241
REMARK  100  A    between atoms: _240  and  _243
REMARK  101  A    between atoms: _243  and  _244
REMARK  102  A    between atoms: _247  and  _249
REMARK  103  A    between atoms: _249  and  _250
REMARK  104  A    between atoms: _252  and  _254
REMARK  105  A    between atoms: _254  and  _255
REMARK  106  A    between atoms: _254  and  _257
REMARK  107  A    between atoms: _257  and  _258
REMARK  108  A    between atoms: _258  and  _259
REMARK  109  A    between atoms: _259  and  _260
REMARK  110  A    between atoms: _269  and  _271
REMARK  111  A    between atoms: _271  and  _272
REMARK  112  A    between atoms: _271  and  _274
REMARK  113  A    between atoms: _274  and  _275
REMARK  114  A    between atoms: _275  and  _276
REMARK  115  A    between atoms: _276  and  _277
REMARK  116  A    between atoms: _286  and  _288
REMARK  117  A    between atoms: _288  and  _289
REMARK  118  A    between atoms: _288  and  _291
REMARK  119  A    between atoms: _291  and  _292
REMARK  120  A    between atoms: _295  and  _297
REMARK  121  A    between atoms: _297  and  _298
REMARK  122  A    between atoms: _297  and  _300
REMARK  123  A    between atoms: _300  and  _301
REMARK  124  A    between atoms: _304  and  _306
REMARK  125  A    between atoms: _306  and  _307
REMARK  126  A    between atoms: _306  and  _309
REMARK  127  A    between atoms: _309  and  _310
REMARK  128  A    between atoms: _313  and  _315
REMARK  129  A    between atoms: _315  and  _316
REMARK  130  A    between atoms: _315  and  _318
REMARK  131  A    between atoms: _318  and  _319
REMARK  132  A    between atoms: _322  and  _324
REMARK  133  A    between atoms: _324  and  _325
REMARK  134  A    between atoms: _324  and  _327
REMARK  135  A    between atoms: _327  and  _328
REMARK  136  A    between atoms: _331  and  _333
REMARK  137  A    between atoms: _333  and  _334
REMARK  138  A    between atoms: _336  and  _338
REMARK  139  A    between atoms: _338  and  _339
REMARK  140  A    between atoms: _342  and  _344
REMARK  141  A    between atoms: _344  and  _345
REMARK  142  A    between atoms: _344  and  _347
REMARK  143  A    between atoms: _347  and  _348
REMARK  144  A    between atoms: _351  and  _353
REMARK  145  A    between atoms: _353  and  _354
REMARK  146  A    between atoms: _353  and  _356
REMARK  147  A    between atoms: _356  and  _357
REMARK  148  A    between atoms: _360  and  _362
REMARK  149  A    between atoms: _362  and  _363
REMARK  150  A    between atoms: _362  and  _365
REMARK  151  A    between atoms: _365  and  _366
REMARK  152  A    between atoms: _369  and  _371
REMARK  153  A    between atoms: _371  and  _372
REMARK  154  A    between atoms: _371  and  _374
REMARK  155  A    between atoms: _377  and  _379
REMARK  156  A    between atoms: _379  and  _380
REMARK  157  A    between atoms: _379  and  _382
REMARK  158  A    between atoms: _382  and  _383
REMARK  159  A    between atoms: _383  and  _384
REMARK  160  A    between atoms: _384  and  _385
REMARK  161  A    between atoms: _385  and  _386
REMARK  162  A    between atoms: _390  and  _392
REMARK  163  A    between atoms: _392  and  _393
REMARK  164  A    between atoms: _392  and  _395
REMARK  165  A    between atoms: _395  and  _396
REMARK  166  A    between atoms: _396  and  _397
REMARK  167  A    between atoms: _399  and  _401
REMARK  168  A    between atoms: _401  and  _402
REMARK  169  A    between atoms: _401  and  _404
REMARK  170  A    between atoms: _404  and  _405
REMARK  171  A    between atoms: _408  and  _410
REMARK  172  A    between atoms: _410  and  _411
REMARK  173  A    between atoms: _413  and  _415
REMARK  174  A    between atoms: _415  and  _416
REMARK  175  A    between atoms: _418  and  _420
REMARK  176  A    between atoms: _420  and  _421
REMARK  177  A    between atoms: _420  and  _423
REMARK  178  A    between atoms: _423  and  _424
REMARK  179  A    between atoms: _427  and  _429
REMARK  180  A    between atoms: _429  and  _430
REMARK  181  A    between atoms: _432  and  _434
REMARK  182  A    between atoms: _434  and  _435
REMARK  183  A    between atoms: _437  and  _439
REMARK  184  A    between atoms: _439  and  _440
REMARK  185  A    between atoms: _439  and  _442
REMARK  186  A    between atoms: _442  and  _443
REMARK  187  A    between atoms: _449  and  _451
REMARK  188  A    between atoms: _451  and  _452
REMARK  189  A    between atoms: _451  and  _454
REMARK  190  A    between atoms: _454  and  _455
REMARK  191  A    between atoms: _458  and  _460
REMARK  192  A    between atoms: _460  and  _461
REMARK  193  A    between atoms: _460  and  _463
REMARK  194  A    between atoms: _463  and  _464
REMARK  195  A    between atoms: _467  and  _469
REMARK  196  A    between atoms: _469  and  _470
REMARK  197  A    between atoms: _469  and  _472
REMARK  198  A    between atoms: _472  and  _473
REMARK  199  A    between atoms: _477  and  _478
REMARK  200  A    between atoms: _483  and  _485
REMARK  201  A    between atoms: _485  and  _486
REMARK  202  A    between atoms: _485  and  _488
REMARK  203  A    between atoms: _491  and  _493
REMARK  204  A    between atoms: _493  and  _494
REMARK  205  A    between atoms: _493  and  _496
REMARK  206  A    between atoms: _496  and  _497
REMARK  207  A    between atoms: _502  and  _504
REMARK  208  A    between atoms: _504  and  _505
REMARK  209  A    between atoms: _504  and  _507
REMARK  210  A    between atoms: _507  and  _508
REMARK  211  A    between atoms: _511  and  _513
REMARK  212  A    between atoms: _513  and  _514
REMARK  213  A    between atoms: _513  and  _516
REMARK  214  A    between atoms: _516  and  _517
REMARK  215  A    between atoms: _520  and  _522
REMARK  216  A    between atoms: _522  and  _523
REMARK  217  A    between atoms: _525  and  _527
REMARK  218  A    between atoms: _527  and  _528
REMARK  219  A    between atoms: _527  and  _530
REMARK  220  A    between atoms: _530  and  _531
REMARK  221  A    between atoms: _531  and  _532
REMARK  222  A    between atoms: _532  and  _533
REMARK                            x       y       z     vdW  Elec       q    Type
REMARK                         _______ _______ _______ _____ _____    ______ ____
ROOT
ATOM      1  NE  ARG A   1      23.047  21.110   7.951  0.00  0.00    -0.265 N 
ATOM      2  CZ  ARG A   1      22.397  20.373   8.849  0.00  0.00    +0.342 C 
ATOM      3  NH2 ARG A   1      22.487  20.652  10.146  0.00  0.00    -0.292 N 
ATOM      4 HH21 ARG A   1      21.975  20.070  10.840  0.00  0.00    +0.255 HD
ATOM      5 HH22 ARG A   1      23.069  21.452  10.467  0.00  0.00    +0.255 HD
ATOM      6  NH1 ARG A   1      21.650  19.352   8.447  0.00  0.00    -0.292 N 
ATOM      7 HH11 ARG A   1      21.141  18.774   9.145  0.00  0.00    +0.255 HD
ATOM      8 HH12 ARG A   1      21.574  19.130   7.434  0.00  0.00    +0.255 HD
ATOM      9  HE  ARG A   1      22.946  20.851   6.949  0.00  0.00    +0.259 HD
ENDROOT
BRANCH   1  10
ATOM     10  CD  ARG A   1      23.892  22.256   8.274  0.00  0.00    +0.174 C 
BRANCH  10  11
ATOM     11  CG  ARG A   1      24.497  22.893   7.039  0.00  0.00    +0.045 C 
BRANCH  11  12
ATOM     12  CB  ARG A   1      25.169  24.199   7.405  0.00  0.00    +0.029 C 
BRANCH  12  13
ATOM     13  CA  ARG A   1      25.788  24.974   6.237  0.00  0.00    +0.133 C 
BRANCH  13  14
ATOM     14  N   ARG A   1      27.052  24.364   5.829  0.00  0.00    -0.239 NA
ATOM     15  H   ARG A   1      27.430  23.565   6.377  0.00  0.00    +0.142 HD
ENDBRANCH  13  14
BRANCH  13  16
ATOM     16  C   ARG A   1      26.055  26.414   6.688  0.00  0.00    +0.224 C 
ATOM     17  O   ARG A   1      27.002  26.657   7.455  0.00  0.00    -0.287 OA
ENDBRANCH  13  16
ENDBRANCH  12  13
ENDBRANCH  11  12
ENDBRANCH  10  11
ENDBRANCH   1  10
TORSDOF 6
REMARK  Name = ../refined-set-2016/2bpv/2bpv_pocket.pdb
REMARK  222 active torsions:
REMARK  status: ('A' for Active; 'I' for Inactive)
REMARK    1  A    between atoms: _1  and  _3
REMARK    2  A    between atoms: _3  and  _4
REMARK    3  A    between atoms: _3  and  _6
REMARK    4  A    between atoms: _6  and  _7
REMARK    5  A    between atoms: _7  and  _8
REMARK    6  A    between atoms: _8  and  _9
REMARK    7  A    between atoms: _18  and  _20
REMARK    8  A    between atoms: _20  and  _21
REMARK    9  A    between atoms: _20  and  _23
REMARK   10  A    between atoms: _23  and  _24
REMARK   11  A    between atoms: _27  and  _29
REMARK   12  A    between atoms: _29  and  _30
REMARK   13  A    between atoms: _29  and  _32
REMARK   14  A    between atoms: _32  and  _33
REMARK   15  A    between atoms: _36  and  _38
REMARK   16  A    between atoms: _38  and  _39
REMARK   17  A    between atoms: _38  and  _41
REMARK   18  A    between atoms: _41  and  _42
REMARK   19  A    between atoms: _45  and  _47
REMARK   20  A    between atoms: _47  and  _48
REMARK   21  A    between atoms: _47  and  _50
REMARK   22  A    between atoms: _50  and  _51
REMARK   23  A    between atoms: _54  and  _56
REMARK   24  A    between atoms: _56  and  _57
REMARK   25  A    between atoms: _56  and  _59
REMARK   26  A    between atoms: _59  and  _60
REMARK   27  A    between atoms: _63  and  _65
REMARK   28  A    between atoms: _65  and  _66
REMARK   29  A    between atoms: _68  and  _70
REMARK   30  A    between atoms: _70  and  _71
REMARK   31  A    between atoms: _74  and  _76
REMARK   32  A    between atoms: _76  and  _77
REMARK   33  A    between atoms: _76  and  _79
REMARK   34  A    between atoms: _79  and  _80
REMARK   35  A    between atoms: _83  and  _85
REMARK   36  A    between atoms: _85  and  _86
REMARK   37  A    between atoms: _85  and  _88
REMARK   38  A    between atoms: _88  and  _89
REMARK   39  A    between atoms: _92  and  _94
REMARK   40  A    between atoms: _94  and  _95
REMARK   41  A    between atoms: _94  and  _97
REMARK   42  A    between atoms: _97  and  _98
REMARK   43  A    between atoms: _101  and  _103
REMARK   44  A    between atoms: _103  and  _104
REMARK   45  A    between atoms: _103  and  _106
REMARK   46  A    between atoms: _109  and  _111
REMARK   47  A    between atoms: _111  and  _112
REMARK   48  A    between atoms: _111  and  _114
REMARK   49  A    between atoms: _114  and  _115
REMARK   50  A    between atoms: _115  and  _116
REMARK   51  A    between atoms: _118  and  _120
REMARK   52  A    between atoms: _120  and  _121
REMARK   53  A    between atoms: _120  and  _123
REMARK   54  A    between atoms: _123  and  _124
REMARK   55  A    between atoms: _127  and  _129
REMARK   56  A    between atoms: _129  and  _130
REMARK   57  A    between atoms: _132  and  _134
REMARK   58  A    between atoms: _134  and  _135
REMARK   59  A    between atoms: _137  and  _139
REMARK   60  A    between atoms: _139  and  _140
REMARK   61  A    between atoms: _139  and  _142
REMARK   62  A    between atoms: _142  and  _143
REMARK   63  A    between atoms: _146  and  _148
REMARK   64  A    between atoms: _148  and  _149
REMARK   65  A    between atoms: _151  and  _153
REMARK   66  A    between atoms: _153  and  _154
REMARK   67  A    between atoms: _156  and  _158
REMARK   68  A    between atoms: _158  and  _159
REMARK   69  A    between atoms: _158  and  _161
REMARK   70  A    between atoms: _161  and  _162
REMARK   71  A    between atoms: _168  and  _170
REMARK   72  A    between atoms: _170  and  _171
REMARK   73  A    between atoms: _170  and  _173
REMARK   74  A    between atoms: _173  and  _174
REMARK   75  A    between atoms: _177  and  _179
REMARK   76  A    between atoms: _179  and  _180
REMARK   77  A    between atoms: _179  and  _182
REMARK   78  A    between atoms: _185  and  _187
REMARK   79  A    between atoms: _187  and  _188
REMARK   80  A    between atoms: _187  and  _190
REMARK   81  A    between atoms: _190  and  _191
REMARK   82  A    between atoms: _194  and  _196
REMARK   83  A    between atoms: _196  and  _197
REMARK   84  A    between atoms: _196  and  _199
REMARK   85  A    between atoms: _199  and  _200
REMARK   86  A    between atoms: _204  and  _205
REMARK   87  A    between atoms: _210  and  _212
REMARK   88  A    between atoms: _212  and  _213
REMARK   89  A    between atoms: _212  and  _215
REMARK   90  A    between atoms: _218  and  _220
REMARK   91  A    between atoms: _220  and  _221
REMARK   92  A    between atoms: _220  and  _223
REMARK   93  A    between atoms: _223  and  _224
REMARK   94  A    between atoms: _229  and  _231
REMARK   95  A    between atoms: _231  and  _232
REMARK   96  A    between atoms: _231  and  _234
REMARK   97  A    between atoms: _234  and  _235
REMARK   98  A    between atoms: _238  and  _240
REMARK   99  A    between atoms: _240  and  _241
REMARK  100  A    between atoms: _240  and  _243
REMARK  101  A    between atoms: _243  and  _244
REMARK  102  A    between atoms: _247  and  _249
REMARK  103  A    between atoms: _249  and  _250
REMARK  104  A    between atoms: _252  and  _254
REMARK  105  A    between atoms: _254  and  _255
REMARK  106  A    between atoms: _254  and  _257
REMARK  107  A    between atoms: _257  and  _258
REMARK  108  A    between atoms: _258  and  _259
REMARK  109  A    between atoms: _259  and  _260
REMARK  110  A    between atoms: _269  and  _271
REMARK  111  A    between atoms: _271  and  _272
REMARK  112  A    between atoms: _271  and  _274
REMARK  113  A    between atoms: _274  and  _275
REMARK  114  A    between atoms: _275  and  _276
REMARK  115  A    between atoms: _276  and  _277
REMARK  116  A    between atoms: _286  and  _288
REMARK  117  A    between atoms: _288  and  _289
REMARK  118  A    between atoms: _288  and  _291
REMARK  119  A    between atoms: _291  and  _292
REMARK  120  A    between atoms: _295  and  _297
REMARK  121  A    between atoms: _297  and  _298
REMARK  122  A    between atoms: _297  and  _300
REMARK  123  A    between atoms: _300  and  _301
REMARK  124  A    between atoms: _304  and  _306
REMARK  125  A    between atoms: _306  and  _307
REMARK  126  A    between atoms: _306  and  _309
REMARK  127  A    between atoms: _309  and  _310
REMARK  128  A    between atoms: _313  and  _315
REMARK  129  A    between atoms: _315  and  _316
REMARK  130  A    between atoms: _315  and  _318
REMARK  131  A    between atoms: _318  and  _319
REMARK  132  A    between atoms: _322  and  _324
REMARK  133  A    between atoms: _324  and  _325
REMARK  134  A    between atoms: _324  and  _327
REMARK  135  A    between atoms: _327  and  _328
REMARK  136  A    between atoms: _331  and  _333
REMARK  137  A    between atoms: _333  and  _334
REMARK  138  A    between atoms: _336  and  _338
REMARK  139  A    between atoms: _338  and  _339
REMARK  140  A    between atoms: _342  and  _344
REMARK  141  A    between atoms: _344  and  _345
REMARK  142  A    between atoms: _344  and  _347
REMARK  143  A    between atoms: _347  and  _348
REMARK  144  A    between atoms: _351  and  _353
REMARK  145  A    between atoms: _353  and  _354
REMARK  146  A    between atoms: _353  and  _356
REMARK  147  A    between atoms: _356  and  _357
REMARK  148  A    between atoms: _360  and  _362
REMARK  149  A    between atoms: _362  and  _363
REMARK  150  A    between atoms: _362  and  _365
REMARK  151  A    between atoms: _365  and  _366
REMARK  152  A    between atoms: _369  and  _371
REMARK  153  A    between atoms: _371  and  _372
REMARK  154  A    between atoms: _371  and  _374
REMARK  155  A    between atoms: _377  and  _379
REMARK  156  A    between atoms: _379  and  _380
REMARK  157  A    between atoms: _379  and  _382
REMARK  158  A    between atoms: _382  and  _383
REMARK  159  A    between atoms: _383  and  _384
REMARK  160  A    between atoms: _384  and  _385
REMARK  161  A    between atoms: _385  and  _386
REMARK  162  A    between atoms: _390  and  _392
REMARK  163  A    between atoms: _392  and  _393
REMARK  164  A    between atoms: _392  and  _395
REMARK  165  A    between atoms: _395  and  _396
REMARK  166  A    between atoms: _396  and  _397
REMARK  167  A    between atoms: _399  and  _401
REMARK  168  A    between atoms: _401  and  _402
REMARK  169  A    between atoms: _401  and  _404
REMARK  170  A    between atoms: _404  and  _405
REMARK  171  A    between atoms: _408  and  _410
REMARK  172  A    between atoms: _410  and  _411
REMARK  173  A    between atoms: _413  and  _415
REMARK  174  A    between atoms: _415  and  _416
REMARK  175  A    between atoms: _418  and  _420
REMARK  176  A    between atoms: _420  and  _421
REMARK  177  A    between atoms: _420  and  _423
REMARK  178  A    between atoms: _423  and  _424
REMARK  179  A    between atoms: _427  and  _429
REMARK  180  A    between atoms: _429  and  _430
REMARK  181  A    between atoms: _432  and  _434
REMARK  182  A    between atoms: _434  and  _435
REMARK  183  A    between atoms: _437  and  _439
REMARK  184  A    between atoms: _439  and  _440
REMARK  185  A    between atoms: _439  and  _442
REMARK  186  A    between atoms: _442  and  _443
REMARK  187  A    between atoms: _449  and  _451
REMARK  188  A    between atoms: _451  and  _452
REMARK  189  A    between atoms: _451  and  _454
REMARK  190  A    between atoms: _454  and  _455
REMARK  191  A    between atoms: _458  and  _460
REMARK  192  A    between atoms: _460  and  _461
REMARK  193  A    between atoms: _460  and  _463
REMARK  194  A    between atoms: _463  and  _464
REMARK  195  A    between atoms: _467  and  _469
REMARK  196  A    between atoms: _469  and  _470
REMARK  197  A    between atoms: _469  and  _472
REMARK  198  A    between atoms: _472  and  _473
REMARK  199  A    between atoms: _477  and  _478
REMARK  200  A    between atoms: _483  and  _485
REMARK  201  A    between atoms: _485  and  _486
REMARK  202  A    between atoms: _485  and  _488
REMARK  203  A    between atoms: _491  and  _493
REMARK  204  A    between atoms: _493  and  _494
REMARK  205  A    between atoms: _493  and  _496
REMARK  206  A    between atoms: _496  and  _497
REMARK  207  A    between atoms: _502  and  _504
REMARK  208  A    between atoms: _504  and  _505
REMARK  209  A    between atoms: _504  and  _507
REMARK  210  A    between atoms: _507  and  _508
REMARK  211  A    between atoms: _511  and  _513
REMARK  212  A    between atoms: _513  and  _514
REMARK  213  A    between atoms: _513  and  _516
REMARK  214  A    between atoms: _516  and  _517
REMARK  215  A    between atoms: _520  and  _522
REMARK  216  A    between atoms: _522  and  _523
REMARK  217  A    between atoms: _525  and  _527
REMARK  218  A    between atoms: _527  and  _528
REMARK  219  A    between atoms: _527  and  _530
REMARK  220  A    between atoms: _530  and  _531
REMARK  221  A    between atoms: _531  and  _532
REMARK  222  A    between atoms: _532  and  _533
REMARK                            x       y       z     vdW  Elec       q    Type
REMARK                         _______ _______ _______ _____ _____    ______ ____
ROOT
ATOM      1  CA  LEU A   1      25.455  28.843  10.459  0.00  0.00    +0.133 C 
ENDROOT
BRANCH   1   2
ATOM      2  N   LEU A   1      25.750  28.638   9.044  0.00  0.00    -0.239 NA
ATOM      3  H   LEU A   1      26.610  28.113   8.787  0.00  0.00    +0.142 HD
ENDBRANCH   1   2
BRANCH   1   4
ATOM      4  C   LEU A   1      26.138  30.108  10.967  0.00  0.00    +0.224 C 
ATOM      5  O   LEU A   1      27.301  30.358  10.641  0.00  0.00    -0.287 OA
ENDBRANCH   1   4
BRANCH   1   6
ATOM      6  CB  LEU A   1      25.924  27.636  11.277  0.00  0.00    +0.025 C 
BRANCH   6   7
ATOM      7  CG  LEU A   1      25.175  26.338  10.957  0.00  0.00    +0.002 C 
ATOM      8  CD2 LEU A   1      23.832  26.280  11.681  0.00  0.00    +0.000 C 
ATOM      9  CD1 LEU A   1      26.032  25.148  11.322  0.00  0.00    +0.000 C 
ENDBRANCH   6   7
ENDBRANCH   1   6
TORSDOF 4
REMARK  Name = ../refined-set-2016/2bpv/2bpv_pocket.pdb
REMARK  222 active torsions:
REMARK  status: ('A' for Active; 'I' for Inactive)
REMARK    1  A    between atoms: _1  and  _3
REMARK    2  A    between atoms: _3  and  _4
REMARK    3  A    between atoms: _3  and  _6
REMARK    4  A    between atoms: _6  and  _7
REMARK    5  A    between atoms: _7  and  _8
REMARK    6  A    between atoms: _8  and  _9
REMARK    7  A    between atoms: _18  and  _20
REMARK    8  A    between atoms: _20  and  _21
REMARK    9  A    between atoms: _20  and  _23
REMARK   10  A    between atoms: _23  and  _24
REMARK   11  A    between atoms: _27  and  _29
REMARK   12  A    between atoms: _29  and  _30
REMARK   13  A    between atoms: _29  and  _32
REMARK   14  A    between atoms: _32  and  _33
REMARK   15  A    between atoms: _36  and  _38
REMARK   16  A    between atoms: _38  and  _39
REMARK   17  A    between atoms: _38  and  _41
REMARK   18  A    between atoms: _41  and  _42
REMARK   19  A    between atoms: _45  and  _47
REMARK   20  A    between atoms: _47  and  _48
REMARK   21  A    between atoms: _47  and  _50
REMARK   22  A    between atoms: _50  and  _51
REMARK   23  A    between atoms: _54  and  _56
REMARK   24  A    between atoms: _56  and  _57
REMARK   25  A    between atoms: _56  and  _59
REMARK   26  A    between atoms: _59  and  _60
REMARK   27  A    between atoms: _63  and  _65
REMARK   28  A    between atoms: _65  and  _66
REMARK   29  A    between atoms: _68  and  _70
REMARK   30  A    between atoms: _70  and  _71
REMARK   31  A    between atoms: _74  and  _76
REMARK   32  A    between atoms: _76  and  _77
REMARK   33  A    between atoms: _76  and  _79
REMARK   34  A    between atoms: _79  and  _80
REMARK   35  A    between atoms: _83  and  _85
REMARK   36  A    between atoms: _85  and  _86
REMARK   37  A    between atoms: _85  and  _88
REMARK   38  A    between atoms: _88  and  _89
REMARK   39  A    between atoms: _92  and  _94
REMARK   40  A    between atoms: _94  and  _95
REMARK   41  A    between atoms: _94  and  _97
REMARK   42  A    between atoms: _97  and  _98
REMARK   43  A    between atoms: _101  and  _103
REMARK   44  A    between atoms: _103  and  _104
REMARK   45  A    between atoms: _103  and  _106
REMARK   46  A    between atoms: _109  and  _111
REMARK   47  A    between atoms: _111  and  _112
REMARK   48  A    between atoms: _111  and  _114
REMARK   49  A    between atoms: _114  and  _115
REMARK   50  A    between atoms: _115  and  _116
REMARK   51  A    between atoms: _118  and  _120
REMARK   52  A    between atoms: _120  and  _121
REMARK   53  A    between atoms: _120  and  _123
REMARK   54  A    between atoms: _123  and  _124
REMARK   55  A    between atoms: _127  and  _129
REMARK   56  A    between atoms: _129  and  _130
REMARK   57  A    between atoms: _132  and  _134
REMARK   58  A    between atoms: _134  and  _135
REMARK   59  A    between atoms: _137  and  _139
REMARK   60  A    between atoms: _139  and  _140
REMARK   61  A    between atoms: _139  and  _142
REMARK   62  A    between atoms: _142  and  _143
REMARK   63  A    between atoms: _146  and  _148
REMARK   64  A    between atoms: _148  and  _149
REMARK   65  A    between atoms: _151  and  _153
REMARK   66  A    between atoms: _153  and  _154
REMARK   67  A    between atoms: _156  and  _158
REMARK   68  A    between atoms: _158  and  _159
REMARK   69  A    between atoms: _158  and  _161
REMARK   70  A    between atoms: _161  and  _162
REMARK   71  A    between atoms: _168  and  _170
REMARK   72  A    between atoms: _170  and  _171
REMARK   73  A    between atoms: _170  and  _173
REMARK   74  A    between atoms: _173  and  _174
REMARK   75  A    between atoms: _177  and  _179
REMARK   76  A    between atoms: _179  and  _180
REMARK   77  A    between atoms: _179  and  _182
REMARK   78  A    between atoms: _185  and  _187
REMARK   79  A    between atoms: _187  and  _188
REMARK   80  A    between atoms: _187  and  _190
REMARK   81  A    between atoms: _190  and  _191
REMARK   82  A    between atoms: _194  and  _196
REMARK   83  A    between atoms: _196  and  _197
REMARK   84  A    between atoms: _196  and  _199
REMARK   85  A    between atoms: _199  and  _200
REMARK   86  A    between atoms: _204  and  _205
REMARK   87  A    between atoms: _210  and  _212
REMARK   88  A    between atoms: _212  and  _213
REMARK   89  A    between atoms: _212  and  _215
REMARK   90  A    between atoms: _218  and  _220
REMARK   91  A    between atoms: _220  and  _221
REMARK   92  A    between atoms: _220  and  _223
REMARK   93  A    between atoms: _223  and  _224
REMARK   94  A    between atoms: _229  and  _231
REMARK   95  A    between atoms: _231  and  _232
REMARK   96  A    between atoms: _231  and  _234
REMARK   97  A    between atoms: _234  and  _235
REMARK   98  A    between atoms: _238  and  _240
REMARK   99  A    between atoms: _240  and  _241
REMARK  100  A    between atoms: _240  and  _243
REMARK  101  A    between atoms: _243  and  _244
REMARK  102  A    between atoms: _247  and  _249
REMARK  103  A    between atoms: _249  and  _250
REMARK  104  A    between atoms: _252  and  _254
REMARK  105  A    between atoms: _254  and  _255
REMARK  106  A    between atoms: _254  and  _257
REMARK  107  A    between atoms: _257  and  _258
REMARK  108  A    between atoms: _258  and  _259
REMARK  109  A    between atoms: _259  and  _260
REMARK  110  A    between atoms: _269  and  _271
REMARK  111  A    between atoms: _271  and  _272
REMARK  112  A    between atoms: _271  and  _274
REMARK  113  A    between atoms: _274  and  _275
REMARK  114  A    between atoms: _275  and  _276
REMARK  115  A    between atoms: _276  and  _277
REMARK  116  A    between atoms: _286  and  _288
REMARK  117  A    between atoms: _288  and  _289
REMARK  118  A    between atoms: _288  and  _291
REMARK  119  A    between atoms: _291  and  _292
REMARK  120  A    between atoms: _295  and  _297
REMARK  121  A    between atoms: _297  and  _298
REMARK  122  A    between atoms: _297  and  _300
REMARK  123  A    between atoms: _300  and  _301
REMARK  124  A    between atoms: _304  and  _306
REMARK  125  A    between atoms: _306  and  _307
REMARK  126  A    between atoms: _306  and  _309
REMARK  127  A    between atoms: _309  and  _310
REMARK  128  A    between atoms: _313  and  _315
REMARK  129  A    between atoms: _315  and  _316
REMARK  130  A    between atoms: _315  and  _318
REMARK  131  A    between atoms: _318  and  _319
REMARK  132  A    between atoms: _322  and  _324
REMARK  133  A    between atoms: _324  and  _325
REMARK  134  A    between atoms: _324  and  _327
REMARK  135  A    between atoms: _327  and  _328
REMARK  136  A    between atoms: _331  and  _333
REMARK  137  A    between atoms: _333  and  _334
REMARK  138  A    between atoms: _336  and  _338
REMARK  139  A    between atoms: _338  and  _339
REMARK  140  A    between atoms: _342  and  _344
REMARK  141  A    between atoms: _344  and  _345
REMARK  142  A    between atoms: _344  and  _347
REMARK  143  A    between atoms: _347  and  _348
REMARK  144  A    between atoms: _351  and  _353
REMARK  145  A    between atoms: _353  and  _354
REMARK  146  A    between atoms: _353  and  _356
REMARK  147  A    between atoms: _356  and  _357
REMARK  148  A    between atoms: _360  and  _362
REMARK  149  A    between atoms: _362  and  _363
REMARK  150  A    between atoms: _362  and  _365
REMARK  151  A    between atoms: _365  and  _366
REMARK  152  A    between atoms: _369  and  _371
REMARK  153  A    between atoms: _371  and  _372
REMARK  154  A    between atoms: _371  and  _374
REMARK  155  A    between atoms: _377  and  _379
REMARK  156  A    between atoms: _379  and  _380
REMARK  157  A    between atoms: _379  and  _382
REMARK  158  A    between atoms: _382  and  _383
REMARK  159  A    between atoms: _383  and  _384
REMARK  160  A    between atoms: _384  and  _385
REMARK  161  A    between atoms: _385  and  _386
REMARK  162  A    between atoms: _390  and  _392
REMARK  163  A    between atoms: _392  and  _393
REMARK  164  A    between atoms: _392  and  _395
REMARK  165  A    between atoms: _395  and  _396
REMARK  166  A    between atoms: _396  and  _397
REMARK  167  A    between atoms: _399  and  _401
REMARK  168  A    between atoms: _401  and  _402
REMARK  169  A    between atoms: _401  and  _404
REMARK  170  A    between atoms: _404  and  _405
REMARK  171  A    between atoms: _408  and  _410
REMARK  172  A    between atoms: _410  and  _411
REMARK  173  A    between atoms: _413  and  _415
REMARK  174  A    between atoms: _415  and  _416
REMARK  175  A    between atoms: _418  and  _420
REMARK  176  A    between atoms: _420  and  _421
REMARK  177  A    between atoms: _420  and  _423
REMARK  178  A    between atoms: _423  and  _424
REMARK  179  A    between atoms: _427  and  _429
REMARK  180  A    between atoms: _429  and  _430
REMARK  181  A    between atoms: _432  and  _434
REMARK  182  A    between atoms: _434  and  _435
REMARK  183  A    between atoms: _437  and  _439
REMARK  184  A    between atoms: _439  and  _440
REMARK  185  A    between atoms: _439  and  _442
REMARK  186  A    between atoms: _442  and  _443
REMARK  187  A    between atoms: _449  and  _451
REMARK  188  A    between atoms: _451  and  _452
REMARK  189  A    between atoms: _451  and  _454
REMARK  190  A    between atoms: _454  and  _455
REMARK  191  A    between atoms: _458  and  _460
REMARK  192  A    between atoms: _460  and  _461
REMARK  193  A    between atoms: _460  and  _463
REMARK  194  A    between atoms: _463  and  _464
REMARK  195  A    between atoms: _467  and  _469
REMARK  196  A    between atoms: _469  and  _470
REMARK  197  A    between atoms: _469  and  _472
REMARK  198  A    between atoms: _472  and  _473
REMARK  199  A    between atoms: _477  and  _478
REMARK  200  A    between atoms: _483  and  _485
REMARK  201  A    between atoms: _485  and  _486
REMARK  202  A    between atoms: _485  and  _488
REMARK  203  A    between atoms: _491  and  _493
REMARK  204  A    between atoms: _493  and  _494
REMARK  205  A    between atoms: _493  and  _496
REMARK  206  A    between atoms: _496  and  _497
REMARK  207  A    between atoms: _502  and  _504
REMARK  208  A    between atoms: _504  and  _505
REMARK  209  A    between atoms: _504  and  _507
REMARK  210  A    between atoms: _507  and  _508
REMARK  211  A    between atoms: _511  and  _513
REMARK  212  A    between atoms: _513  and  _514
REMARK  213  A    between atoms: _513  and  _516
REMARK  214  A    between atoms: _516  and  _517
REMARK  215  A    between atoms: _520  and  _522
REMARK  216  A    between atoms: _522  and  _523
REMARK  217  A    between atoms: _525  and  _527
REMARK  218  A    between atoms: _527  and  _528
REMARK  219  A    between atoms: _527  and  _530
REMARK  220  A    between atoms: _530  and  _531
REMARK  221  A    between atoms: _531  and  _532
REMARK  222  A    between atoms: _532  and  _533
REMARK                            x       y       z     vdW  Elec       q    Type
REMARK                         _______ _______ _______ _____ _____    ______ ____
ROOT
ATOM      1  C   GLY A   5      12.670  28.777   3.115  0.00  0.00    +0.243 C 
ATOM      2  N   ALA A   6      13.060  29.269   4.293  0.00  0.00    -0.297 N 
ATOM      3  H   ALA A   6      14.057  29.536   4.418  0.00  0.00    +0.150 HD
ATOM      4  O   GLY A   5      11.509  28.421   2.880  0.00  0.00    -0.273 OA
ENDROOT
BRANCH   2   5
ATOM      5  CA  ALA A   6      12.138  29.446   5.413  0.00  0.00    +0.149 C 
ATOM      6  CB  ALA A   6      12.875  29.276   6.712  0.00  0.00    +0.031 C 
BRANCH   5   7
ATOM      7  C   ALA A   6      11.425  30.795   5.404  0.00  0.00    +0.241 C 
ATOM      8  O   ALA A   6      12.063  31.845   5.429  0.00  0.00    -0.273 OA
ATOM      9  N   ASP A   7      10.098  30.765   5.407  0.00  0.00    -0.297 N 
ATOM     10  H   ASP A   7       9.601  29.851   5.394  0.00  0.00    +0.150 HD
BRANCH   9  11
ATOM     11  CA  ASP A   7       9.333  32.005   5.429  0.00  0.00    +0.160 C 
BRANCH  11  12
ATOM     12  C   ASP A   7       9.457  32.636   6.800  0.00  0.00    +0.241 C 
ATOM     13  N   ASP A   8       9.491  31.786   7.821  0.00  0.00    -0.297 N 
ATOM     14  H   ASP A   8       9.470  30.765   7.623  0.00  0.00    +0.150 HD
ATOM     15  O   ASP A   7       9.562  33.855   6.925  0.00  0.00    -0.273 OA
BRANCH  13  16
ATOM     16  CA  ASP A   8       9.557  32.230   9.204  0.00  0.00    +0.160 C 
BRANCH  16  17
ATOM     17  C   ASP A   8      10.846  31.864   9.921  0.00  0.00    +0.241 C 
ATOM     18  N   THR A   9      10.984  32.394  11.131  0.00  0.00    -0.295 N 
ATOM     19  H   THR A   9      10.230  33.017  11.485  0.00  0.00    +0.150 HD
ATOM     20  O   ASP A   8      11.695  31.139   9.388  0.00  0.00    -0.273 OA
BRANCH  18  21
ATOM     21  CA  THR A   9      12.130  32.150  11.983  0.00  0.00    +0.176 C 
BRANCH  21  22
ATOM     22  C   THR A   9      11.617  31.233  13.103  0.00  0.00    +0.243 C 
ATOM     23  O   THR A   9      10.637  31.553  13.784  0.00  0.00    -0.273 OA
ATOM     24  N   VAL A  10      12.239  30.068  13.248  0.00  0.00    -0.298 N 
ATOM     25  H   VAL A  10      13.045  29.843  12.631  0.00  0.00    +0.150 HD
BRANCH  24  26
ATOM     26  CA  VAL A  10      11.818  29.097  14.253  0.00  0.00    +0.137 C 
BRANCH  26  27
ATOM     27  CB  VAL A  10      11.301  27.789  13.616  0.00  0.00    +0.026 C 
ATOM     28  CG2 VAL A  10      10.489  27.007  14.620  0.00  0.00    +0.002 C 
ATOM     29  CG1 VAL A  10      10.483  28.080  12.365  0.00  0.00    +0.002 C 
ENDBRANCH  26  27
BRANCH  26  30
ATOM     30  C   VAL A  10      13.000  28.758  15.127  0.00  0.00    +0.227 C 
ATOM     31  O   VAL A  10      14.065  28.424  14.625  0.00  0.00    -0.286 OA
ENDBRANCH  26  30
ENDBRANCH  24  26
ENDBRANCH  21  22
BRANCH  21  32
ATOM     32  CB  THR A   9      12.676  33.481  12.532  0.00  0.00    +0.137 C 
ATOM     33  CG2 THR A   9      13.720  33.248  13.596  0.00  0.00    +0.034 C 
BRANCH  32  34
ATOM     34  OG1 THR A   9      13.260  34.230  11.461  0.00  0.00    -0.382 OA
ATOM     35  HG1 THR A   9      12.572  34.412  10.773  0.00  0.00    +0.210 HD
ENDBRANCH  32  34
ENDBRANCH  21  32
ENDBRANCH  18  21
ENDBRANCH  16  17
BRANCH  16  36
ATOM     36  CB  ASP A   8       8.374  31.647   9.977  0.00  0.00    +0.143 C 
BRANCH  36  37
ATOM     37  CG  ASP A   8       7.050  31.899   9.286  0.00  0.00    +0.367 C 
ATOM     38  OD2 ASP A   8       6.711  33.078   9.034  0.00  0.00    -0.246 OA
ATOM     39  OD1 ASP A   8       6.343  30.915   8.985  0.00  0.00    -0.246 OA
ENDBRANCH  36  37
ENDBRANCH  16  36
ENDBRANCH  13  16
ENDBRANCH  11  12
BRANCH  11  40
ATOM     40  CB  ASP A   7       7.852  31.745   5.149  0.00  0.00    +0.143 C 
BRANCH  40  41
ATOM     41  CG  ASP A   7       7.595  31.246   3.745  0.00  0.00    +0.367 C 
ATOM     42  OD2 ASP A   7       6.500  30.710   3.507  0.00  0.00    -0.246 OA
ATOM     43  OD1 ASP A   7       8.471  31.381   2.875  0.00  0.00    -0.246 OA
ENDBRANCH  40  41
ENDBRANCH  11  40
ENDBRANCH   9  11
ENDBRANCH   5   7
ENDBRANCH   2   5
BRANCH   1  44
ATOM     44  CA  GLY A   5      13.732  28.647   2.044  0.00  0.00    +0.176 C 
BRANCH  44  46
ATOM     45  C   THR A   4      14.980  30.712   2.036  0.00  0.00    +0.243 C 
ATOM     46  N   GLY A   5      14.929  29.418   2.326  0.00  0.00    -0.295 N 
ATOM     47  H   GLY A   5      15.753  28.953   2.758  0.00  0.00    +0.150 HD
ATOM     48  O   THR A   4      14.048  31.309   1.491  0.00  0.00    -0.273 OA
BRANCH  45  49
ATOM     49  CA  THR A   4      16.284  31.439   2.382  0.00  0.00    +0.176 C 
BRANCH  49  52
ATOM     50  C   ASP A   3      16.732  30.658   4.647  0.00  0.00    +0.241 C 
ATOM     51  O   ASP A   3      15.644  31.065   5.050  0.00  0.00    -0.273 OA
ATOM     52  N   THR A   4      17.092  30.735   3.370  0.00  0.00    -0.295 N 
ATOM     53  H   THR A   4      17.976  30.279   3.067  0.00  0.00    +0.150 HD
BRANCH  50  54
ATOM     54  CA  ASP A   3      17.672  29.871   5.567  0.00  0.00    +0.160 C 
BRANCH  54  56
ATOM     55  C   LEU A   2      19.804  30.647   6.424  0.00  0.00    +0.241 C 
ATOM     56  N   ASP A   3      18.484  30.636   6.488  0.00  0.00    -0.297 N 
ATOM     57  H   ASP A   3      18.013  31.197   7.226  0.00  0.00    +0.150 HD
ATOM     58  O   LEU A   2      20.444  30.111   5.518  0.00  0.00    -0.273 OA
BRANCH  55  59
ATOM     59  CA  LEU A   2      20.509  31.413   7.527  0.00  0.00    +0.149 C 
BRANCH  59  62
ATOM     60  C   LEU A   1      20.323  29.774   9.349  0.00  0.00    +0.238 C 
ATOM     61  O   LEU A   1      19.166  30.108   9.609  0.00  0.00    -0.274 OA
ATOM     62  N   LEU A   2      21.051  30.367   8.398  0.00  0.00    -0.297 N 
ATOM     63  H   LEU A   2      22.041  30.075   8.271  0.00  0.00    +0.150 HD
BRANCH  60  64
ATOM     64  CA  LEU A   1      20.996  28.657  10.159  0.00  0.00    +0.145 C 
BRANCH  64  65
ATOM     65  N   LEU A   1      20.841  28.862  11.590  0.00  0.00    -0.238 NA
ATOM     66  H   LEU A   1      19.952  28.555  12.034  0.00  0.00    +0.142 HD
ENDBRANCH  64  65
BRANCH  64  67
ATOM     67  CB  LEU A   1      20.354  27.305   9.813  0.00  0.00    +0.026 C 
BRANCH  67  68
ATOM     68  CG  LEU A   1      20.494  26.735   8.408  0.00  0.00    +0.002 C 
ATOM     69  CD2 LEU A   1      19.615  25.499   8.291  0.00  0.00    +0.000 C 
ATOM     70  CD1 LEU A   1      21.937  26.388   8.138  0.00  0.00    +0.000 C 
ENDBRANCH  67  68
ENDBRANCH  64  67
ENDBRANCH  60  64
ENDBRANCH  59  62
BRANCH  59  71
ATOM     71  CB  LEU A   2      21.635  32.286   6.951  0.00  0.00    +0.029 C 
BRANCH  71  72
ATOM     72  CG  LEU A   2      22.464  33.023   8.013  0.00  0.00    +0.002 C 
ATOM     73  CD2 LEU A   2      21.570  33.917   8.870  0.00  0.00    +0.000 C 
ATOM     74  CD1 LEU A   2      23.549  33.848   7.343  0.00  0.00    +0.000 C 
ENDBRANCH  71  72
ENDBRANCH  59  71
ENDBRANCH  55  59
ENDBRANCH  54  56
BRANCH  54  75
ATOM     75  CB  ASP A   3      16.886  28.871   6.419  0.00  0.00    +0.143 C 
BRANCH  75  76
ATOM     76  CG  ASP A   3      16.175  27.807   5.609  0.00  0.00    +0.367 C 
ATOM     77  OD2 ASP A   3      15.603  26.911   6.254  0.00  0.00    -0.246 OA
ATOM     78  OD1 ASP A   3      16.188  27.837   4.358  0.00  0.00    -0.246 OA
ENDBRANCH  75  76
ENDBRANCH  54  75
ENDBRANCH  50  54
ENDBRANCH  49  52
BRANCH  49  79
ATOM     79  CB  THR A   4      17.063  31.655   1.094  0.00  0.00    +0.137 C 
ATOM     80  CG2 THR A   4      18.327  32.447   1.363  0.00  0.00    +0.034 C 
BRANCH  79  81
ATOM     81  OG1 THR A   4      17.414  30.390   0.532  0.00  0.00    -0.382 OA
ATOM     82  HG1 THR A   4      16.590  29.876   0.338  0.00  0.00    +0.210 HD
ENDBRANCH  79  81
ENDBRANCH  49  79
ENDBRANCH  45  49
ENDBRANCH  44  46
ENDBRANCH   1  44
TORSDOF 35
REMARK  Name = ../refined-set-2016/2bpv/2bpv_pocket.pdb
REMARK  222 active torsions:
REMARK  status: ('A' for Active; 'I' for Inactive)
REMARK    1  A    between atoms: _1  and  _3
REMARK    2  A    between atoms: _3  and  _4
REMARK    3  A    between atoms: _3  and  _6
REMARK    4  A    between atoms: _6  and  _7
REMARK    5  A    between atoms: _7  and  _8
REMARK    6  A    between atoms: _8  and  _9
REMARK    7  A    between atoms: _18  and  _20
REMARK    8  A    between atoms: _20  and  _21
REMARK    9  A    between atoms: _20  and  _23
REMARK   10  A    between atoms: _23  and  _24
REMARK   11  A    between atoms: _27  and  _29
REMARK   12  A    between atoms: _29  and  _30
REMARK   13  A    between atoms: _29  and  _32
REMARK   14  A    between atoms: _32  and  _33
REMARK   15  A    between atoms: _36  and  _38
REMARK   16  A    between atoms: _38  and  _39
REMARK   17  A    between atoms: _38  and  _41
REMARK   18  A    between atoms: _41  and  _42
REMARK   19  A    between atoms: _45  and  _47
REMARK   20  A    between atoms: _47  and  _48
REMARK   21  A    between atoms: _47  and  _50
REMARK   22  A    between atoms: _50  and  _51
REMARK   23  A    between atoms: _54  and  _56
REMARK   24  A    between atoms: _56  and  _57
REMARK   25  A    between atoms: _56  and  _59
REMARK   26  A    between atoms: _59  and  _60
REMARK   27  A    between atoms: _63  and  _65
REMARK   28  A    between atoms: _65  and  _66
REMARK   29  A    between atoms: _68  and  _70
REMARK   30  A    between atoms: _70  and  _71
REMARK   31  A    between atoms: _74  and  _76
REMARK   32  A    between atoms: _76  and  _77
REMARK   33  A    between atoms: _76  and  _79
REMARK   34  A    between atoms: _79  and  _80
REMARK   35  A    between atoms: _83  and  _85
REMARK   36  A    between atoms: _85  and  _86
REMARK   37  A    between atoms: _85  and  _88
REMARK   38  A    between atoms: _88  and  _89
REMARK   39  A    between atoms: _92  and  _94
REMARK   40  A    between atoms: _94  and  _95
REMARK   41  A    between atoms: _94  and  _97
REMARK   42  A    between atoms: _97  and  _98
REMARK   43  A    between atoms: _101  and  _103
REMARK   44  A    between atoms: _103  and  _104
REMARK   45  A    between atoms: _103  and  _106
REMARK   46  A    between atoms: _109  and  _111
REMARK   47  A    between atoms: _111  and  _112
REMARK   48  A    between atoms: _111  and  _114
REMARK   49  A    between atoms: _114  and  _115
REMARK   50  A    between atoms: _115  and  _116
REMARK   51  A    between atoms: _118  and  _120
REMARK   52  A    between atoms: _120  and  _121
REMARK   53  A    between atoms: _120  and  _123
REMARK   54  A    between atoms: _123  and  _124
REMARK   55  A    between atoms: _127  and  _129
REMARK   56  A    between atoms: _129  and  _130
REMARK   57  A    between atoms: _132  and  _134
REMARK   58  A    between atoms: _134  and  _135
REMARK   59  A    between atoms: _137  and  _139
REMARK   60  A    between atoms: _139  and  _140
REMARK   61  A    between atoms: _139  and  _142
REMARK   62  A    between atoms: _142  and  _143
REMARK   63  A    between atoms: _146  and  _148
REMARK   64  A    between atoms: _148  and  _149
REMARK   65  A    between atoms: _151  and  _153
REMARK   66  A    between atoms: _153  and  _154
REMARK   67  A    between atoms: _156  and  _158
REMARK   68  A    between atoms: _158  and  _159
REMARK   69  A    between atoms: _158  and  _161
REMARK   70  A    between atoms: _161  and  _162
REMARK   71  A    between atoms: _168  and  _170
REMARK   72  A    between atoms: _170  and  _171
REMARK   73  A    between atoms: _170  and  _173
REMARK   74  A    between atoms: _173  and  _174
REMARK   75  A    between atoms: _177  and  _179
REMARK   76  A    between atoms: _179  and  _180
REMARK   77  A    between atoms: _179  and  _182
REMARK   78  A    between atoms: _185  and  _187
REMARK   79  A    between atoms: _187  and  _188
REMARK   80  A    between atoms: _187  and  _190
REMARK   81  A    between atoms: _190  and  _191
REMARK   82  A    between atoms: _194  and  _196
REMARK   83  A    between atoms: _196  and  _197
REMARK   84  A    between atoms: _196  and  _199
REMARK   85  A    between atoms: _199  and  _200
REMARK   86  A    between atoms: _204  and  _205
REMARK   87  A    between atoms: _210  and  _212
REMARK   88  A    between atoms: _212  and  _213
REMARK   89  A    between atoms: _212  and  _215
REMARK   90  A    between atoms: _218  and  _220
REMARK   91  A    between atoms: _220  and  _221
REMARK   92  A    between atoms: _220  and  _223
REMARK   93  A    between atoms: _223  and  _224
REMARK   94  A    between atoms: _229  and  _231
REMARK   95  A    between atoms: _231  and  _232
REMARK   96  A    between atoms: _231  and  _234
REMARK   97  A    between atoms: _234  and  _235
REMARK   98  A    between atoms: _238  and  _240
REMARK   99  A    between atoms: _240  and  _241
REMARK  100  A    between atoms: _240  and  _243
REMARK  101  A    between atoms: _243  and  _244
REMARK  102  A    between atoms: _247  and  _249
REMARK  103  A    between atoms: _249  and  _250
REMARK  104  A    between atoms: _252  and  _254
REMARK  105  A    between atoms: _254  and  _255
REMARK  106  A    between atoms: _254  and  _257
REMARK  107  A    between atoms: _257  and  _258
REMARK  108  A    between atoms: _258  and  _259
REMARK  109  A    between atoms: _259  and  _260
REMARK  110  A    between atoms: _269  and  _271
REMARK  111  A    between atoms: _271  and  _272
REMARK  112  A    between atoms: _271  and  _274
REMARK  113  A    between atoms: _274  and  _275
REMARK  114  A    between atoms: _275  and  _276
REMARK  115  A    between atoms: _276  and  _277
REMARK  116  A    between atoms: _286  and  _288
REMARK  117  A    between atoms: _288  and  _289
REMARK  118  A    between atoms: _288  and  _291
REMARK  119  A    between atoms: _291  and  _292
REMARK  120  A    between atoms: _295  and  _297
REMARK  121  A    between atoms: _297  and  _298
REMARK  122  A    between atoms: _297  and  _300
REMARK  123  A    between atoms: _300  and  _301
REMARK  124  A    between atoms: _304  and  _306
REMARK  125  A    between atoms: _306  and  _307
REMARK  126  A    between atoms: _306  and  _309
REMARK  127  A    between atoms: _309  and  _310
REMARK  128  A    between atoms: _313  and  _315
REMARK  129  A    between atoms: _315  and  _316
REMARK  130  A    between atoms: _315  and  _318
REMARK  131  A    between atoms: _318  and  _319
REMARK  132  A    between atoms: _322  and  _324
REMARK  133  A    between atoms: _324  and  _325
REMARK  134  A    between atoms: _324  and  _327
REMARK  135  A    between atoms: _327  and  _328
REMARK  136  A    between atoms: _331  and  _333
REMARK  137  A    between atoms: _333  and  _334
REMARK  138  A    between atoms: _336  and  _338
REMARK  139  A    between atoms: _338  and  _339
REMARK  140  A    between atoms: _342  and  _344
REMARK  141  A    between atoms: _344  and  _345
REMARK  142  A    between atoms: _344  and  _347
REMARK  143  A    between atoms: _347  and  _348
REMARK  144  A    between atoms: _351  and  _353
REMARK  145  A    between atoms: _353  and  _354
REMARK  146  A    between atoms: _353  and  _356
REMARK  147  A    between atoms: _356  and  _357
REMARK  148  A    between atoms: _360  and  _362
REMARK  149  A    between atoms: _362  and  _363
REMARK  150  A    between atoms: _362  and  _365
REMARK  151  A    between atoms: _365  and  _366
REMARK  152  A    between atoms: _369  and  _371
REMARK  153  A    between atoms: _371  and  _372
REMARK  154  A    between atoms: _371  and  _374
REMARK  155  A    between atoms: _377  and  _379
REMARK  156  A    between atoms: _379  and  _380
REMARK  157  A    between atoms: _379  and  _382
REMARK  158  A    between atoms: _382  and  _383
REMARK  159  A    between atoms: _383  and  _384
REMARK  160  A    between atoms: _384  and  _385
REMARK  161  A    between atoms: _385  and  _386
REMARK  162  A    between atoms: _390  and  _392
REMARK  163  A    between atoms: _392  and  _393
REMARK  164  A    between atoms: _392  and  _395
REMARK  165  A    between atoms: _395  and  _396
REMARK  166  A    between atoms: _396  and  _397
REMARK  167  A    between atoms: _399  and  _401
REMARK  168  A    between atoms: _401  and  _402
REMARK  169  A    between atoms: _401  and  _404
REMARK  170  A    between atoms: _404  and  _405
REMARK  171  A    between atoms: _408  and  _410
REMARK  172  A    between atoms: _410  and  _411
REMARK  173  A    between atoms: _413  and  _415
REMARK  174  A    between atoms: _415  and  _416
REMARK  175  A    between atoms: _418  and  _420
REMARK  176  A    between atoms: _420  and  _421
REMARK  177  A    between atoms: _420  and  _423
REMARK  178  A    between atoms: _423  and  _424
REMARK  179  A    between atoms: _427  and  _429
REMARK  180  A    between atoms: _429  and  _430
REMARK  181  A    between atoms: _432  and  _434
REMARK  182  A    between atoms: _434  and  _435
REMARK  183  A    between atoms: _437  and  _439
REMARK  184  A    between atoms: _439  and  _440
REMARK  185  A    between atoms: _439  and  _442
REMARK  186  A    between atoms: _442  and  _443
REMARK  187  A    between atoms: _449  and  _451
REMARK  188  A    between atoms: _451  and  _452
REMARK  189  A    between atoms: _451  and  _454
REMARK  190  A    between atoms: _454  and  _455
REMARK  191  A    between atoms: _458  and  _460
REMARK  192  A    between atoms: _460  and  _461
REMARK  193  A    between atoms: _460  and  _463
REMARK  194  A    between atoms: _463  and  _464
REMARK  195  A    between atoms: _467  and  _469
REMARK  196  A    between atoms: _469  and  _470
REMARK  197  A    between atoms: _469  and  _472
REMARK  198  A    between atoms: _472  and  _473
REMARK  199  A    between atoms: _477  and  _478
REMARK  200  A    between atoms: _483  and  _485
REMARK  201  A    between atoms: _485  and  _486
REMARK  202  A    between atoms: _485  and  _488
REMARK  203  A    between atoms: _491  and  _493
REMARK  204  A    between atoms: _493  and  _494
REMARK  205  A    between atoms: _493  and  _496
REMARK  206  A    between atoms: _496  and  _497
REMARK  207  A    between atoms: _502  and  _504
REMARK  208  A    between atoms: _504  and  _505
REMARK  209  A    between atoms: _504  and  _507
REMARK  210  A    between atoms: _507  and  _508
REMARK  211  A    between atoms: _511  and  _513
REMARK  212  A    between atoms: _513  and  _514
REMARK  213  A    between atoms: _513  and  _516
REMARK  214  A    between atoms: _516  and  _517
REMARK  215  A    between atoms: _520  and  _522
REMARK  216  A    between atoms: _522  and  _523
REMARK  217  A    between atoms: _525  and  _527
REMARK  218  A    between atoms: _527  and  _528
REMARK  219  A    between atoms: _527  and  _530
REMARK  220  A    between atoms: _530  and  _531
REMARK  221  A    between atoms: _531  and  _532
REMARK  222  A    between atoms: _532  and  _533
REMARK                            x       y       z     vdW  Elec       q    Type
REMARK                         _______ _______ _______ _____ _____    ______ ____
ROOT
ATOM      1  CA  ILE A   5       9.481  18.286   5.092  0.00  0.00    +0.149 C 
ENDROOT
BRANCH   1   4
ATOM      2  C   GLY A   4       7.865  20.033   5.605  0.00  0.00    +0.243 C 
ATOM      3  O   GLY A   4       6.902  19.274   5.504  0.00  0.00    -0.273 OA
ATOM      4  N   ILE A   5       9.120  19.661   5.394  0.00  0.00    -0.297 N 
ATOM      5  H   ILE A   5       9.872  20.378   5.446  0.00  0.00    +0.150 HD
BRANCH   2   6
ATOM      6  CA  GLY A   4       7.663  21.486   5.957  0.00  0.00    +0.176 C 
BRANCH   6   8
ATOM      7  C   GLY A   3       5.976  22.744   7.140  0.00  0.00    +0.243 C 
ATOM      8  N   GLY A   4       6.590  21.591   6.922  0.00  0.00    -0.295 N 
ATOM      9  H   GLY A   4       6.296  20.747   7.453  0.00  0.00    +0.150 HD
ATOM     10  O   GLY A   3       6.266  23.788   6.563  0.00  0.00    -0.273 OA
BRANCH   7  11
ATOM     11  CA  GLY A   3       4.874  22.699   8.153  0.00  0.00    +0.176 C 
BRANCH  11  14
ATOM     12  C   ILE A   2       4.399  24.056  10.064  0.00  0.00    +0.241 C 
ATOM     13  O   ILE A   2       4.639  23.110  10.812  0.00  0.00    -0.273 OA
ATOM     14  N   GLY A   3       4.499  23.965   8.744  0.00  0.00    -0.295 N 
ATOM     15  H   GLY A   3       4.310  24.792   8.143  0.00  0.00    +0.150 HD
BRANCH  12  16
ATOM     16  CA  ILE A   2       3.964  25.394  10.643  0.00  0.00    +0.148 C 
BRANCH  16  18
ATOM     17  C   MET A   1       1.861  25.603  11.855  0.00  0.00    +0.238 C 
ATOM     18  N   ILE A   2       3.118  25.164  11.821  0.00  0.00    -0.297 N 
ATOM     19  H   ILE A   2       3.505  24.652  12.639  0.00  0.00    +0.150 HD
ATOM     20  O   MET A   1       1.363  26.265  10.948  0.00  0.00    -0.274 OA
BRANCH  17  21
ATOM     21  CA  MET A   1       1.049  25.314  13.107  0.00  0.00    +0.146 C 
BRANCH  21  22
ATOM     22  N   MET A   1       0.682  26.617  13.637  0.00  0.00    -0.238 NA
ATOM     23  H   MET A   1       0.156  27.279  13.031  0.00  0.00    +0.142 HD
ENDBRANCH  21  22
BRANCH  21  24
ATOM     24  CB  MET A   1      -0.219  24.546  12.729  0.00  0.00    +0.038 C 
BRANCH  24  25
ATOM     25  CG  MET A   1      -0.103  23.045  12.820  0.00  0.00    +0.060 C 
BRANCH  25  26
ATOM     26  SD  MET A   1      -0.089  22.458  14.511  0.00  0.00    -0.139 S 
ATOM     27  CE  MET A   1      -1.807  22.462  14.856  0.00  0.00    +0.069 C 
ENDBRANCH  25  26
ENDBRANCH  24  25
ENDBRANCH  21  24
ENDBRANCH  17  21
ENDBRANCH  16  18
BRANCH  16  28
ATOM     28  CB  ILE A   2       5.199  26.242  10.956  0.00  0.00    +0.027 C 
ATOM     29  CG2 ILE A   2       4.785  27.649  11.327  0.00  0.00    +0.002 C 
BRANCH  28  30
ATOM     30  CG1 ILE A   2       6.016  25.584  12.062  0.00  0.00    +0.002 C 
ATOM     31  CD1 ILE A   2       7.322  26.269  12.318  0.00  0.00    +0.000 C 
ENDBRANCH  28  30
ENDBRANCH  16  28
ENDBRANCH  12  16
ENDBRANCH  11  14
ENDBRANCH   7  11
ENDBRANCH   6   8
ENDBRANCH   2   6
ENDBRANCH   1   4
BRANCH   1  32
ATOM     32  C   ILE A   5       9.192  17.476   6.344  0.00  0.00    +0.241 C 
ATOM     33  O   ILE A   5       9.684  17.803   7.438  0.00  0.00    -0.273 OA
ATOM     34  N   GLY A   6       8.361  16.457   6.205  0.00  0.00    -0.295 N 
ATOM     35  H   GLY A   6       7.943  16.251   5.275  0.00  0.00    +0.150 HD
BRANCH  34  36
ATOM     36  CA  GLY A   6       8.032  15.628   7.345  0.00  0.00    +0.176 C 
BRANCH  36  37
ATOM     37  C   GLY A   6       6.703  15.952   7.992  0.00  0.00    +0.243 C 
ATOM     38  O   GLY A   6       6.258  15.205   8.856  0.00  0.00    -0.273 OA
ATOM     39  N   GLY A   7       6.069  17.050   7.593  0.00  0.00    -0.295 N 
ATOM     40  H   GLY A   7       6.496  17.656   6.863  0.00  0.00    +0.150 HD
BRANCH  39  41
ATOM     41  CA  GLY A   7       4.788  17.410   8.166  0.00  0.00    +0.176 C 
BRANCH  41  42
ATOM     42  C   GLY A   7       4.794  18.691   8.974  0.00  0.00    +0.243 C 
ATOM     43  N   PHE A   8       3.759  18.856   9.790  0.00  0.00    -0.297 N 
ATOM     44  H   PHE A   8       3.049  18.098   9.845  0.00  0.00    +0.150 HD
ATOM     45  O   GLY A   7       5.739  19.484   8.898  0.00  0.00    -0.273 OA
BRANCH  43  46
ATOM     46  CA  PHE A   8       3.568  20.042  10.610  0.00  0.00    +0.153 C 
BRANCH  46  47
ATOM     47  C   PHE A   8       3.922  19.895  12.082  0.00  0.00    +0.241 C 
ATOM     48  N   ILE A   9       4.354  21.004  12.688  0.00  0.00    -0.298 N 
ATOM     49  H   ILE A   9       4.457  21.870  12.121  0.00  0.00    +0.150 HD
ATOM     50  O   PHE A   8       3.807  18.807  12.646  0.00  0.00    -0.273 OA
BRANCH  48  51
ATOM     51  CA  ILE A   9       4.690  21.061  14.111  0.00  0.00    +0.137 C 
BRANCH  51  52
ATOM     52  CB  ILE A   9       6.209  21.192  14.390  0.00  0.00    +0.026 C 
ATOM     53  CG2 ILE A   9       6.946  19.930  13.919  0.00  0.00    +0.002 C 
BRANCH  52  54
ATOM     54  CG1 ILE A   9       6.808  22.455  13.764  0.00  0.00    +0.002 C 
ATOM     55  CD1 ILE A   9       8.176  22.825  14.317  0.00  0.00    +0.000 C 
ENDBRANCH  52  54
ENDBRANCH  51  52
BRANCH  51  56
ATOM     56  C   ILE A   9       3.963  22.257  14.724  0.00  0.00    +0.227 C 
ATOM     57  O   ILE A   9       3.663  23.235  14.038  0.00  0.00    -0.286 OA
ENDBRANCH  51  56
ENDBRANCH  48  51
ENDBRANCH  46  47
BRANCH  46  58
ATOM     58  CB  PHE A   8       2.112  20.502  10.503  0.00  0.00    +0.055 C 
BRANCH  58  59
ATOM     59  CG  PHE A   8       1.781  21.189   9.212  0.00  0.00    -0.020 A 
ATOM     60  CD2 PHE A   8       1.562  22.559   9.186  0.00  0.00    -0.004 A 
ATOM     61  CE2 PHE A   8       1.261  23.216   7.999  0.00  0.00    -0.000 A 
ATOM     62  CZ  PHE A   8       1.172  22.500   6.811  0.00  0.00    -0.000 A 
ATOM     63  CE1 PHE A   8       1.388  21.126   6.823  0.00  0.00    -0.000 A 
ATOM     64  CD1 PHE A   8       1.687  20.475   8.023  0.00  0.00    -0.004 A 
ENDBRANCH  58  59
ENDBRANCH  46  58
ENDBRANCH  43  46
ENDBRANCH  41  42
ENDBRANCH  39  41
ENDBRANCH  36  37
ENDBRANCH  34  36
ENDBRANCH   1  32
BRANCH   1  65
ATOM     65  CB  ILE A   5      10.977  18.184   4.785  0.00  0.00    +0.027 C 
ATOM     66  CG2 ILE A   5      11.415  16.731   4.674  0.00  0.00    +0.002 C 
BRANCH  65  67
ATOM     67  CG1 ILE A   5      11.286  19.012   3.537  0.00  0.00    +0.002 C 
ATOM     68  CD1 ILE A   5      10.643  18.486   2.290  0.00  0.00    +0.000 C 
ENDBRANCH  65  67
ENDBRANCH   1  65
TORSDOF 29
REMARK  Name = ../refined-set-2016/2bpv/2bpv_pocket.pdb
REMARK  222 active torsions:
REMARK  status: ('A' for Active; 'I' for Inactive)
REMARK    1  A    between atoms: _1  and  _3
REMARK    2  A    between atoms: _3  and  _4
REMARK    3  A    between atoms: _3  and  _6
REMARK    4  A    between atoms: _6  and  _7
REMARK    5  A    between atoms: _7  and  _8
REMARK    6  A    between atoms: _8  and  _9
REMARK    7  A    between atoms: _18  and  _20
REMARK    8  A    between atoms: _20  and  _21
REMARK    9  A    between atoms: _20  and  _23
REMARK   10  A    between atoms: _23  and  _24
REMARK   11  A    between atoms: _27  and  _29
REMARK   12  A    between atoms: _29  and  _30
REMARK   13  A    between atoms: _29  and  _32
REMARK   14  A    between atoms: _32  and  _33
REMARK   15  A    between atoms: _36  and  _38
REMARK   16  A    between atoms: _38  and  _39
REMARK   17  A    between atoms: _38  and  _41
REMARK   18  A    between atoms: _41  and  _42
REMARK   19  A    between atoms: _45  and  _47
REMARK   20  A    between atoms: _47  and  _48
REMARK   21  A    between atoms: _47  and  _50
REMARK   22  A    between atoms: _50  and  _51
REMARK   23  A    between atoms: _54  and  _56
REMARK   24  A    between atoms: _56  and  _57
REMARK   25  A    between atoms: _56  and  _59
REMARK   26  A    between atoms: _59  and  _60
REMARK   27  A    between atoms: _63  and  _65
REMARK   28  A    between atoms: _65  and  _66
REMARK   29  A    between atoms: _68  and  _70
REMARK   30  A    between atoms: _70  and  _71
REMARK   31  A    between atoms: _74  and  _76
REMARK   32  A    between atoms: _76  and  _77
REMARK   33  A    between atoms: _76  and  _79
REMARK   34  A    between atoms: _79  and  _80
REMARK   35  A    between atoms: _83  and  _85
REMARK   36  A    between atoms: _85  and  _86
REMARK   37  A    between atoms: _85  and  _88
REMARK   38  A    between atoms: _88  and  _89
REMARK   39  A    between atoms: _92  and  _94
REMARK   40  A    between atoms: _94  and  _95
REMARK   41  A    between atoms: _94  and  _97
REMARK   42  A    between atoms: _97  and  _98
REMARK   43  A    between atoms: _101  and  _103
REMARK   44  A    between atoms: _103  and  _104
REMARK   45  A    between atoms: _103  and  _106
REMARK   46  A    between atoms: _109  and  _111
REMARK   47  A    between atoms: _111  and  _112
REMARK   48  A    between atoms: _111  and  _114
REMARK   49  A    between atoms: _114  and  _115
REMARK   50  A    between atoms: _115  and  _116
REMARK   51  A    between atoms: _118  and  _120
REMARK   52  A    between atoms: _120  and  _121
REMARK   53  A    between atoms: _120  and  _123
REMARK   54  A    between atoms: _123  and  _124
REMARK   55  A    between atoms: _127  and  _129
REMARK   56  A    between atoms: _129  and  _130
REMARK   57  A    between atoms: _132  and  _134
REMARK   58  A    between atoms: _134  and  _135
REMARK   59  A    between atoms: _137  and  _139
REMARK   60  A    between atoms: _139  and  _140
REMARK   61  A    between atoms: _139  and  _142
REMARK   62  A    between atoms: _142  and  _143
REMARK   63  A    between atoms: _146  and  _148
REMARK   64  A    between atoms: _148  and  _149
REMARK   65  A    between atoms: _151  and  _153
REMARK   66  A    between atoms: _153  and  _154
REMARK   67  A    between atoms: _156  and  _158
REMARK   68  A    between atoms: _158  and  _159
REMARK   69  A    between atoms: _158  and  _161
REMARK   70  A    between atoms: _161  and  _162
REMARK   71  A    between atoms: _168  and  _170
REMARK   72  A    between atoms: _170  and  _171
REMARK   73  A    between atoms: _170  and  _173
REMARK   74  A    between atoms: _173  and  _174
REMARK   75  A    between atoms: _177  and  _179
REMARK   76  A    between atoms: _179  and  _180
REMARK   77  A    between atoms: _179  and  _182
REMARK   78  A    between atoms: _185  and  _187
REMARK   79  A    between atoms: _187  and  _188
REMARK   80  A    between atoms: _187  and  _190
REMARK   81  A    between atoms: _190  and  _191
REMARK   82  A    between atoms: _194  and  _196
REMARK   83  A    between atoms: _196  and  _197
REMARK   84  A    between atoms: _196  and  _199
REMARK   85  A    between atoms: _199  and  _200
REMARK   86  A    between atoms: _204  and  _205
REMARK   87  A    between atoms: _210  and  _212
REMARK   88  A    between atoms: _212  and  _213
REMARK   89  A    between atoms: _212  and  _215
REMARK   90  A    between atoms: _218  and  _220
REMARK   91  A    between atoms: _220  and  _221
REMARK   92  A    between atoms: _220  and  _223
REMARK   93  A    between atoms: _223  and  _224
REMARK   94  A    between atoms: _229  and  _231
REMARK   95  A    between atoms: _231  and  _232
REMARK   96  A    between atoms: _231  and  _234
REMARK   97  A    between atoms: _234  and  _235
REMARK   98  A    between atoms: _238  and  _240
REMARK   99  A    between atoms: _240  and  _241
REMARK  100  A    between atoms: _240  and  _243
REMARK  101  A    between atoms: _243  and  _244
REMARK  102  A    between atoms: _247  and  _249
REMARK  103  A    between atoms: _249  and  _250
REMARK  104  A    between atoms: _252  and  _254
REMARK  105  A    between atoms: _254  and  _255
REMARK  106  A    between atoms: _254  and  _257
REMARK  107  A    between atoms: _257  and  _258
REMARK  108  A    between atoms: _258  and  _259
REMARK  109  A    between atoms: _259  and  _260
REMARK  110  A    between atoms: _269  and  _271
REMARK  111  A    between atoms: _271  and  _272
REMARK  112  A    between atoms: _271  and  _274
REMARK  113  A    between atoms: _274  and  _275
REMARK  114  A    between atoms: _275  and  _276
REMARK  115  A    between atoms: _276  and  _277
REMARK  116  A    between atoms: _286  and  _288
REMARK  117  A    between atoms: _288  and  _289
REMARK  118  A    between atoms: _288  and  _291
REMARK  119  A    between atoms: _291  and  _292
REMARK  120  A    between atoms: _295  and  _297
REMARK  121  A    between atoms: _297  and  _298
REMARK  122  A    between atoms: _297  and  _300
REMARK  123  A    between atoms: _300  and  _301
REMARK  124  A    between atoms: _304  and  _306
REMARK  125  A    between atoms: _306  and  _307
REMARK  126  A    between atoms: _306  and  _309
REMARK  127  A    between atoms: _309  and  _310
REMARK  128  A    between atoms: _313  and  _315
REMARK  129  A    between atoms: _315  and  _316
REMARK  130  A    between atoms: _315  and  _318
REMARK  131  A    between atoms: _318  and  _319
REMARK  132  A    between atoms: _322  and  _324
REMARK  133  A    between atoms: _324  and  _325
REMARK  134  A    between atoms: _324  and  _327
REMARK  135  A    between atoms: _327  and  _328
REMARK  136  A    between atoms: _331  and  _333
REMARK  137  A    between atoms: _333  and  _334
REMARK  138  A    between atoms: _336  and  _338
REMARK  139  A    between atoms: _338  and  _339
REMARK  140  A    between atoms: _342  and  _344
REMARK  141  A    between atoms: _344  and  _345
REMARK  142  A    between atoms: _344  and  _347
REMARK  143  A    between atoms: _347  and  _348
REMARK  144  A    between atoms: _351  and  _353
REMARK  145  A    between atoms: _353  and  _354
REMARK  146  A    between atoms: _353  and  _356
REMARK  147  A    between atoms: _356  and  _357
REMARK  148  A    between atoms: _360  and  _362
REMARK  149  A    between atoms: _362  and  _363
REMARK  150  A    between atoms: _362  and  _365
REMARK  151  A    between atoms: _365  and  _366
REMARK  152  A    between atoms: _369  and  _371
REMARK  153  A    between atoms: _371  and  _372
REMARK  154  A    between atoms: _371  and  _374
REMARK  155  A    between atoms: _377  and  _379
REMARK  156  A    between atoms: _379  and  _380
REMARK  157  A    between atoms: _379  and  _382
REMARK  158  A    between atoms: _382  and  _383
REMARK  159  A    between atoms: _383  and  _384
REMARK  160  A    between atoms: _384  and  _385
REMARK  161  A    between atoms: _385  and  _386
REMARK  162  A    between atoms: _390  and  _392
REMARK  163  A    between atoms: _392  and  _393
REMARK  164  A    between atoms: _392  and  _395
REMARK  165  A    between atoms: _395  and  _396
REMARK  166  A    between atoms: _396  and  _397
REMARK  167  A    between atoms: _399  and  _401
REMARK  168  A    between atoms: _401  and  _402
REMARK  169  A    between atoms: _401  and  _404
REMARK  170  A    between atoms: _404  and  _405
REMARK  171  A    between atoms: _408  and  _410
REMARK  172  A    between atoms: _410  and  _411
REMARK  173  A    between atoms: _413  and  _415
REMARK  174  A    between atoms: _415  and  _416
REMARK  175  A    between atoms: _418  and  _420
REMARK  176  A    between atoms: _420  and  _421
REMARK  177  A    between atoms: _420  and  _423
REMARK  178  A    between atoms: _423  and  _424
REMARK  179  A    between atoms: _427  and  _429
REMARK  180  A    between atoms: _429  and  _430
REMARK  181  A    between atoms: _432  and  _434
REMARK  182  A    between atoms: _434  and  _435
REMARK  183  A    between atoms: _437  and  _439
REMARK  184  A    between atoms: _439  and  _440
REMARK  185  A    between atoms: _439  and  _442
REMARK  186  A    between atoms: _442  and  _443
REMARK  187  A    between atoms: _449  and  _451
REMARK  188  A    between atoms: _451  and  _452
REMARK  189  A    between atoms: _451  and  _454
REMARK  190  A    between atoms: _454  and  _455
REMARK  191  A    between atoms: _458  and  _460
REMARK  192  A    between atoms: _460  and  _461
REMARK  193  A    between atoms: _460  and  _463
REMARK  194  A    between atoms: _463  and  _464
REMARK  195  A    between atoms: _467  and  _469
REMARK  196  A    between atoms: _469  and  _470
REMARK  197  A    between atoms: _469  and  _472
REMARK  198  A    between atoms: _472  and  _473
REMARK  199  A    between atoms: _477  and  _478
REMARK  200  A    between atoms: _483  and  _485
REMARK  201  A    between atoms: _485  and  _486
REMARK  202  A    between atoms: _485  and  _488
REMARK  203  A    between atoms: _491  and  _493
REMARK  204  A    between atoms: _493  and  _494
REMARK  205  A    between atoms: _493  and  _496
REMARK  206  A    between atoms: _496  and  _497
REMARK  207  A    between atoms: _502  and  _504
REMARK  208  A    between atoms: _504  and  _505
REMARK  209  A    between atoms: _504  and  _507
REMARK  210  A    between atoms: _507  and  _508
REMARK  211  A    between atoms: _511  and  _513
REMARK  212  A    between atoms: _513  and  _514
REMARK  213  A    between atoms: _513  and  _516
REMARK  214  A    between atoms: _516  and  _517
REMARK  215  A    between atoms: _520  and  _522
REMARK  216  A    between atoms: _522  and  _523
REMARK  217  A    between atoms: _525  and  _527
REMARK  218  A    between atoms: _527  and  _528
REMARK  219  A    between atoms: _527  and  _530
REMARK  220  A    between atoms: _530  and  _531
REMARK  221  A    between atoms: _531  and  _532
REMARK  222  A    between atoms: _532  and  _533
REMARK                            x       y       z     vdW  Elec       q    Type
REMARK                         _______ _______ _______ _____ _____    ______ ____
ROOT
ATOM      1  CA  VAL A   1       4.863  26.358  17.764  0.00  0.00    +0.133 C 
ENDROOT
BRANCH   1   2
ATOM      2  CB  VAL A   1       5.745  27.000  16.669  0.00  0.00    +0.023 C 
ATOM      3  CG2 VAL A   1       6.653  25.961  16.029  0.00  0.00    +0.002 C 
ATOM      4  CG1 VAL A   1       4.882  27.674  15.617  0.00  0.00    +0.002 C 
ENDBRANCH   1   2
BRANCH   1   5
ATOM      5  N   VAL A   1       3.911  25.406  17.200  0.00  0.00    -0.239 NA
ATOM      6  H   VAL A   1       3.112  25.763  16.638  0.00  0.00    +0.142 HD
ENDBRANCH   1   5
BRANCH   1   7
ATOM      7  C   VAL A   1       4.145  27.485  18.504  0.00  0.00    +0.224 C 
ATOM      8  O   VAL A   1       2.932  27.655  18.379  0.00  0.00    -0.287 OA
ENDBRANCH   1   7
TORSDOF 3
REMARK  Name = ../refined-set-2016/2bpv/2bpv_pocket.pdb
REMARK  222 active torsions:
REMARK  status: ('A' for Active; 'I' for Inactive)
REMARK    1  A    between atoms: _1  and  _3
REMARK    2  A    between atoms: _3  and  _4
REMARK    3  A    between atoms: _3  and  _6
REMARK    4  A    between atoms: _6  and  _7
REMARK    5  A    between atoms: _7  and  _8
REMARK    6  A    between atoms: _8  and  _9
REMARK    7  A    between atoms: _18  and  _20
REMARK    8  A    between atoms: _20  and  _21
REMARK    9  A    between atoms: _20  and  _23
REMARK   10  A    between atoms: _23  and  _24
REMARK   11  A    between atoms: _27  and  _29
REMARK   12  A    between atoms: _29  and  _30
REMARK   13  A    between atoms: _29  and  _32
REMARK   14  A    between atoms: _32  and  _33
REMARK   15  A    between atoms: _36  and  _38
REMARK   16  A    between atoms: _38  and  _39
REMARK   17  A    between atoms: _38  and  _41
REMARK   18  A    between atoms: _41  and  _42
REMARK   19  A    between atoms: _45  and  _47
REMARK   20  A    between atoms: _47  and  _48
REMARK   21  A    between atoms: _47  and  _50
REMARK   22  A    between atoms: _50  and  _51
REMARK   23  A    between atoms: _54  and  _56
REMARK   24  A    between atoms: _56  and  _57
REMARK   25  A    between atoms: _56  and  _59
REMARK   26  A    between atoms: _59  and  _60
REMARK   27  A    between atoms: _63  and  _65
REMARK   28  A    between atoms: _65  and  _66
REMARK   29  A    between atoms: _68  and  _70
REMARK   30  A    between atoms: _70  and  _71
REMARK   31  A    between atoms: _74  and  _76
REMARK   32  A    between atoms: _76  and  _77
REMARK   33  A    between atoms: _76  and  _79
REMARK   34  A    between atoms: _79  and  _80
REMARK   35  A    between atoms: _83  and  _85
REMARK   36  A    between atoms: _85  and  _86
REMARK   37  A    between atoms: _85  and  _88
REMARK   38  A    between atoms: _88  and  _89
REMARK   39  A    between atoms: _92  and  _94
REMARK   40  A    between atoms: _94  and  _95
REMARK   41  A    between atoms: _94  and  _97
REMARK   42  A    between atoms: _97  and  _98
REMARK   43  A    between atoms: _101  and  _103
REMARK   44  A    between atoms: _103  and  _104
REMARK   45  A    between atoms: _103  and  _106
REMARK   46  A    between atoms: _109  and  _111
REMARK   47  A    between atoms: _111  and  _112
REMARK   48  A    between atoms: _111  and  _114
REMARK   49  A    between atoms: _114  and  _115
REMARK   50  A    between atoms: _115  and  _116
REMARK   51  A    between atoms: _118  and  _120
REMARK   52  A    between atoms: _120  and  _121
REMARK   53  A    between atoms: _120  and  _123
REMARK   54  A    between atoms: _123  and  _124
REMARK   55  A    between atoms: _127  and  _129
REMARK   56  A    between atoms: _129  and  _130
REMARK   57  A    between atoms: _132  and  _134
REMARK   58  A    between atoms: _134  and  _135
REMARK   59  A    between atoms: _137  and  _139
REMARK   60  A    between atoms: _139  and  _140
REMARK   61  A    between atoms: _139  and  _142
REMARK   62  A    between atoms: _142  and  _143
REMARK   63  A    between atoms: _146  and  _148
REMARK   64  A    between atoms: _148  and  _149
REMARK   65  A    between atoms: _151  and  _153
REMARK   66  A    between atoms: _153  and  _154
REMARK   67  A    between atoms: _156  and  _158
REMARK   68  A    between atoms: _158  and  _159
REMARK   69  A    between atoms: _158  and  _161
REMARK   70  A    between atoms: _161  and  _162
REMARK   71  A    between atoms: _168  and  _170
REMARK   72  A    between atoms: _170  and  _171
REMARK   73  A    between atoms: _170  and  _173
REMARK   74  A    between atoms: _173  and  _174
REMARK   75  A    between atoms: _177  and  _179
REMARK   76  A    between atoms: _179  and  _180
REMARK   77  A    between atoms: _179  and  _182
REMARK   78  A    between atoms: _185  and  _187
REMARK   79  A    between atoms: _187  and  _188
REMARK   80  A    between atoms: _187  and  _190
REMARK   81  A    between atoms: _190  and  _191
REMARK   82  A    between atoms: _194  and  _196
REMARK   83  A    between atoms: _196  and  _197
REMARK   84  A    between atoms: _196  and  _199
REMARK   85  A    between atoms: _199  and  _200
REMARK   86  A    between atoms: _204  and  _205
REMARK   87  A    between atoms: _210  and  _212
REMARK   88  A    between atoms: _212  and  _213
REMARK   89  A    between atoms: _212  and  _215
REMARK   90  A    between atoms: _218  and  _220
REMARK   91  A    between atoms: _220  and  _221
REMARK   92  A    between atoms: _220  and  _223
REMARK   93  A    between atoms: _223  and  _224
REMARK   94  A    between atoms: _229  and  _231
REMARK   95  A    between atoms: _231  and  _232
REMARK   96  A    between atoms: _231  and  _234
REMARK   97  A    between atoms: _234  and  _235
REMARK   98  A    between atoms: _238  and  _240
REMARK   99  A    between atoms: _240  and  _241
REMARK  100  A    between atoms: _240  and  _243
REMARK  101  A    between atoms: _243  and  _244
REMARK  102  A    between atoms: _247  and  _249
REMARK  103  A    between atoms: _249  and  _250
REMARK  104  A    between atoms: _252  and  _254
REMARK  105  A    between atoms: _254  and  _255
REMARK  106  A    between atoms: _254  and  _257
REMARK  107  A    between atoms: _257  and  _258
REMARK  108  A    between atoms: _258  and  _259
REMARK  109  A    between atoms: _259  and  _260
REMARK  110  A    between atoms: _269  and  _271
REMARK  111  A    between atoms: _271  and  _272
REMARK  112  A    between atoms: _271  and  _274
REMARK  113  A    between atoms: _274  and  _275
REMARK  114  A    between atoms: _275  and  _276
REMARK  115  A    between atoms: _276  and  _277
REMARK  116  A    between atoms: _286  and  _288
REMARK  117  A    between atoms: _288  and  _289
REMARK  118  A    between atoms: _288  and  _291
REMARK  119  A    between atoms: _291  and  _292
REMARK  120  A    between atoms: _295  and  _297
REMARK  121  A    between atoms: _297  and  _298
REMARK  122  A    between atoms: _297  and  _300
REMARK  123  A    between atoms: _300  and  _301
REMARK  124  A    between atoms: _304  and  _306
REMARK  125  A    between atoms: _306  and  _307
REMARK  126  A    between atoms: _306  and  _309
REMARK  127  A    between atoms: _309  and  _310
REMARK  128  A    between atoms: _313  and  _315
REMARK  129  A    between atoms: _315  and  _316
REMARK  130  A    between atoms: _315  and  _318
REMARK  131  A    between atoms: _318  and  _319
REMARK  132  A    between atoms: _322  and  _324
REMARK  133  A    between atoms: _324  and  _325
REMARK  134  A    between atoms: _324  and  _327
REMARK  135  A    between atoms: _327  and  _328
REMARK  136  A    between atoms: _331  and  _333
REMARK  137  A    between atoms: _333  and  _334
REMARK  138  A    between atoms: _336  and  _338
REMARK  139  A    between atoms: _338  and  _339
REMARK  140  A    between atoms: _342  and  _344
REMARK  141  A    between atoms: _344  and  _345
REMARK  142  A    between atoms: _344  and  _347
REMARK  143  A    between atoms: _347  and  _348
REMARK  144  A    between atoms: _351  and  _353
REMARK  145  A    between atoms: _353  and  _354
REMARK  146  A    between atoms: _353  and  _356
REMARK  147  A    between atoms: _356  and  _357
REMARK  148  A    between atoms: _360  and  _362
REMARK  149  A    between atoms: _362  and  _363
REMARK  150  A    between atoms: _362  and  _365
REMARK  151  A    between atoms: _365  and  _366
REMARK  152  A    between atoms: _369  and  _371
REMARK  153  A    between atoms: _371  and  _372
REMARK  154  A    between atoms: _371  and  _374
REMARK  155  A    between atoms: _377  and  _379
REMARK  156  A    between atoms: _379  and  _380
REMARK  157  A    between atoms: _379  and  _382
REMARK  158  A    between atoms: _382  and  _383
REMARK  159  A    between atoms: _383  and  _384
REMARK  160  A    between atoms: _384  and  _385
REMARK  161  A    between atoms: _385  and  _386
REMARK  162  A    between atoms: _390  and  _392
REMARK  163  A    between atoms: _392  and  _393
REMARK  164  A    between atoms: _392  and  _395
REMARK  165  A    between atoms: _395  and  _396
REMARK  166  A    between atoms: _396  and  _397
REMARK  167  A    between atoms: _399  and  _401
REMARK  168  A    between atoms: _401  and  _402
REMARK  169  A    between atoms: _401  and  _404
REMARK  170  A    between atoms: _404  and  _405
REMARK  171  A    between atoms: _408  and  _410
REMARK  172  A    between atoms: _410  and  _411
REMARK  173  A    between atoms: _413  and  _415
REMARK  174  A    between atoms: _415  and  _416
REMARK  175  A    between atoms: _418  and  _420
REMARK  176  A    between atoms: _420  and  _421
REMARK  177  A    between atoms: _420  and  _423
REMARK  178  A    between atoms: _423  and  _424
REMARK  179  A    between atoms: _427  and  _429
REMARK  180  A    between atoms: _429  and  _430
REMARK  181  A    between atoms: _432  and  _434
REMARK  182  A    between atoms: _434  and  _435
REMARK  183  A    between atoms: _437  and  _439
REMARK  184  A    between atoms: _439  and  _440
REMARK  185  A    between atoms: _439  and  _442
REMARK  186  A    between atoms: _442  and  _443
REMARK  187  A    between atoms: _449  and  _451
REMARK  188  A    between atoms: _451  and  _452
REMARK  189  A    between atoms: _451  and  _454
REMARK  190  A    between atoms: _454  and  _455
REMARK  191  A    between atoms: _458  and  _460
REMARK  192  A    between atoms: _460  and  _461
REMARK  193  A    between atoms: _460  and  _463
REMARK  194  A    between atoms: _463  and  _464
REMARK  195  A    between atoms: _467  and  _469
REMARK  196  A    between atoms: _469  and  _470
REMARK  197  A    between atoms: _469  and  _472
REMARK  198  A    between atoms: _472  and  _473
REMARK  199  A    between atoms: _477  and  _478
REMARK  200  A    between atoms: _483  and  _485
REMARK  201  A    between atoms: _485  and  _486
REMARK  202  A    between atoms: _485  and  _488
REMARK  203  A    between atoms: _491  and  _493
REMARK  204  A    between atoms: _493  and  _494
REMARK  205  A    between atoms: _493  and  _496
REMARK  206  A    between atoms: _496  and  _497
REMARK  207  A    between atoms: _502  and  _504
REMARK  208  A    between atoms: _504  and  _505
REMARK  209  A    between atoms: _504  and  _507
REMARK  210  A    between atoms: _507  and  _508
REMARK  211  A    between atoms: _511  and  _513
REMARK  212  A    between atoms: _513  and  _514
REMARK  213  A    between atoms: _513  and  _516
REMARK  214  A    between atoms: _516  and  _517
REMARK  215  A    between atoms: _520  and  _522
REMARK  216  A    between atoms: _522  and  _523
REMARK  217  A    between atoms: _525  and  _527
REMARK  218  A    between atoms: _527  and  _528
REMARK  219  A    between atoms: _527  and  _530
REMARK  220  A    between atoms: _530  and  _531
REMARK  221  A    between atoms: _531  and  _532
REMARK  222  A    between atoms: _532  and  _533
REMARK                            x       y       z     vdW  Elec       q    Type
REMARK                         _______ _______ _______ _____ _____    ______ ____
ROOT
ATOM      1  CA  LEU A   1       8.293  30.988  16.557  0.00  0.00    +0.133 C 
ENDROOT
BRANCH   1   2
ATOM      2  N   LEU A   1       9.094  32.122  16.127  0.00  0.00    -0.239 NA
ATOM      3  H   LEU A   1       9.738  32.004  15.319  0.00  0.00    +0.142 HD
ENDBRANCH   1   2
BRANCH   1   4
ATOM      4  C   LEU A   1       9.205  30.117  17.393  0.00  0.00    +0.224 C 
ATOM      5  O   LEU A   1      10.375  29.944  17.047  0.00  0.00    -0.287 OA
ENDBRANCH   1   4
BRANCH   1   6
ATOM      6  CB  LEU A   1       7.799  30.207  15.339  0.00  0.00    +0.025 C 
BRANCH   6   7
ATOM      7  CG  LEU A   1       7.138  31.063  14.256  0.00  0.00    +0.002 C 
ATOM      8  CD2 LEU A   1       5.919  31.794  14.790  0.00  0.00    +0.000 C 
ATOM      9  CD1 LEU A   1       6.765  30.178  13.089  0.00  0.00    +0.000 C 
ENDBRANCH   6   7
ENDBRANCH   1   6
TORSDOF 4
REMARK  Name = ../refined-set-2016/2bpv/2bpv_pocket.pdb
REMARK  222 active torsions:
REMARK  status: ('A' for Active; 'I' for Inactive)
REMARK    1  A    between atoms: _1  and  _3
REMARK    2  A    between atoms: _3  and  _4
REMARK    3  A    between atoms: _3  and  _6
REMARK    4  A    between atoms: _6  and  _7
REMARK    5  A    between atoms: _7  and  _8
REMARK    6  A    between atoms: _8  and  _9
REMARK    7  A    between atoms: _18  and  _20
REMARK    8  A    between atoms: _20  and  _21
REMARK    9  A    between atoms: _20  and  _23
REMARK   10  A    between atoms: _23  and  _24
REMARK   11  A    between atoms: _27  and  _29
REMARK   12  A    between atoms: _29  and  _30
REMARK   13  A    between atoms: _29  and  _32
REMARK   14  A    between atoms: _32  and  _33
REMARK   15  A    between atoms: _36  and  _38
REMARK   16  A    between atoms: _38  and  _39
REMARK   17  A    between atoms: _38  and  _41
REMARK   18  A    between atoms: _41  and  _42
REMARK   19  A    between atoms: _45  and  _47
REMARK   20  A    between atoms: _47  and  _48
REMARK   21  A    between atoms: _47  and  _50
REMARK   22  A    between atoms: _50  and  _51
REMARK   23  A    between atoms: _54  and  _56
REMARK   24  A    between atoms: _56  and  _57
REMARK   25  A    between atoms: _56  and  _59
REMARK   26  A    between atoms: _59  and  _60
REMARK   27  A    between atoms: _63  and  _65
REMARK   28  A    between atoms: _65  and  _66
REMARK   29  A    between atoms: _68  and  _70
REMARK   30  A    between atoms: _70  and  _71
REMARK   31  A    between atoms: _74  and  _76
REMARK   32  A    between atoms: _76  and  _77
REMARK   33  A    between atoms: _76  and  _79
REMARK   34  A    between atoms: _79  and  _80
REMARK   35  A    between atoms: _83  and  _85
REMARK   36  A    between atoms: _85  and  _86
REMARK   37  A    between atoms: _85  and  _88
REMARK   38  A    between atoms: _88  and  _89
REMARK   39  A    between atoms: _92  and  _94
REMARK   40  A    between atoms: _94  and  _95
REMARK   41  A    between atoms: _94  and  _97
REMARK   42  A    between atoms: _97  and  _98
REMARK   43  A    between atoms: _101  and  _103
REMARK   44  A    between atoms: _103  and  _104
REMARK   45  A    between atoms: _103  and  _106
REMARK   46  A    between atoms: _109  and  _111
REMARK   47  A    between atoms: _111  and  _112
REMARK   48  A    between atoms: _111  and  _114
REMARK   49  A    between atoms: _114  and  _115
REMARK   50  A    between atoms: _115  and  _116
REMARK   51  A    between atoms: _118  and  _120
REMARK   52  A    between atoms: _120  and  _121
REMARK   53  A    between atoms: _120  and  _123
REMARK   54  A    between atoms: _123  and  _124
REMARK   55  A    between atoms: _127  and  _129
REMARK   56  A    between atoms: _129  and  _130
REMARK   57  A    between atoms: _132  and  _134
REMARK   58  A    between atoms: _134  and  _135
REMARK   59  A    between atoms: _137  and  _139
REMARK   60  A    between atoms: _139  and  _140
REMARK   61  A    between atoms: _139  and  _142
REMARK   62  A    between atoms: _142  and  _143
REMARK   63  A    between atoms: _146  and  _148
REMARK   64  A    between atoms: _148  and  _149
REMARK   65  A    between atoms: _151  and  _153
REMARK   66  A    between atoms: _153  and  _154
REMARK   67  A    between atoms: _156  and  _158
REMARK   68  A    between atoms: _158  and  _159
REMARK   69  A    between atoms: _158  and  _161
REMARK   70  A    between atoms: _161  and  _162
REMARK   71  A    between atoms: _168  and  _170
REMARK   72  A    between atoms: _170  and  _171
REMARK   73  A    between atoms: _170  and  _173
REMARK   74  A    between atoms: _173  and  _174
REMARK   75  A    between atoms: _177  and  _179
REMARK   76  A    between atoms: _179  and  _180
REMARK   77  A    between atoms: _179  and  _182
REMARK   78  A    between atoms: _185  and  _187
REMARK   79  A    between atoms: _187  and  _188
REMARK   80  A    between atoms: _187  and  _190
REMARK   81  A    between atoms: _190  and  _191
REMARK   82  A    between atoms: _194  and  _196
REMARK   83  A    between atoms: _196  and  _197
REMARK   84  A    between atoms: _196  and  _199
REMARK   85  A    between atoms: _199  and  _200
REMARK   86  A    between atoms: _204  and  _205
REMARK   87  A    between atoms: _210  and  _212
REMARK   88  A    between atoms: _212  and  _213
REMARK   89  A    between atoms: _212  and  _215
REMARK   90  A    between atoms: _218  and  _220
REMARK   91  A    between atoms: _220  and  _221
REMARK   92  A    between atoms: _220  and  _223
REMARK   93  A    between atoms: _223  and  _224
REMARK   94  A    between atoms: _229  and  _231
REMARK   95  A    between atoms: _231  and  _232
REMARK   96  A    between atoms: _231  and  _234
REMARK   97  A    between atoms: _234  and  _235
REMARK   98  A    between atoms: _238  and  _240
REMARK   99  A    between atoms: _240  and  _241
REMARK  100  A    between atoms: _240  and  _243
REMARK  101  A    between atoms: _243  and  _244
REMARK  102  A    between atoms: _247  and  _249
REMARK  103  A    between atoms: _249  and  _250
REMARK  104  A    between atoms: _252  and  _254
REMARK  105  A    between atoms: _254  and  _255
REMARK  106  A    between atoms: _254  and  _257
REMARK  107  A    between atoms: _257  and  _258
REMARK  108  A    between atoms: _258  and  _259
REMARK  109  A    between atoms: _259  and  _260
REMARK  110  A    between atoms: _269  and  _271
REMARK  111  A    between atoms: _271  and  _272
REMARK  112  A    between atoms: _271  and  _274
REMARK  113  A    between atoms: _274  and  _275
REMARK  114  A    between atoms: _275  and  _276
REMARK  115  A    between atoms: _276  and  _277
REMARK  116  A    between atoms: _286  and  _288
REMARK  117  A    between atoms: _288  and  _289
REMARK  118  A    between atoms: _288  and  _291
REMARK  119  A    between atoms: _291  and  _292
REMARK  120  A    between atoms: _295  and  _297
REMARK  121  A    between atoms: _297  and  _298
REMARK  122  A    between atoms: _297  and  _300
REMARK  123  A    between atoms: _300  and  _301
REMARK  124  A    between atoms: _304  and  _306
REMARK  125  A    between atoms: _306  and  _307
REMARK  126  A    between atoms: _306  and  _309
REMARK  127  A    between atoms: _309  and  _310
REMARK  128  A    between atoms: _313  and  _315
REMARK  129  A    between atoms: _315  and  _316
REMARK  130  A    between atoms: _315  and  _318
REMARK  131  A    between atoms: _318  and  _319
REMARK  132  A    between atoms: _322  and  _324
REMARK  133  A    between atoms: _324  and  _325
REMARK  134  A    between atoms: _324  and  _327
REMARK  135  A    between atoms: _327  and  _328
REMARK  136  A    between atoms: _331  and  _333
REMARK  137  A    between atoms: _333  and  _334
REMARK  138  A    between atoms: _336  and  _338
REMARK  139  A    between atoms: _338  and  _339
REMARK  140  A    between atoms: _342  and  _344
REMARK  141  A    between atoms: _344  and  _345
REMARK  142  A    between atoms: _344  and  _347
REMARK  143  A    between atoms: _347  and  _348
REMARK  144  A    between atoms: _351  and  _353
REMARK  145  A    between atoms: _353  and  _354
REMARK  146  A    between atoms: _353  and  _356
REMARK  147  A    between atoms: _356  and  _357
REMARK  148  A    between atoms: _360  and  _362
REMARK  149  A    between atoms: _362  and  _363
REMARK  150  A    between atoms: _362  and  _365
REMARK  151  A    between atoms: _365  and  _366
REMARK  152  A    between atoms: _369  and  _371
REMARK  153  A    between atoms: _371  and  _372
REMARK  154  A    between atoms: _371  and  _374
REMARK  155  A    between atoms: _377  and  _379
REMARK  156  A    between atoms: _379  and  _380
REMARK  157  A    between atoms: _379  and  _382
REMARK  158  A    between atoms: _382  and  _383
REMARK  159  A    between atoms: _383  and  _384
REMARK  160  A    between atoms: _384  and  _385
REMARK  161  A    between atoms: _385  and  _386
REMARK  162  A    between atoms: _390  and  _392
REMARK  163  A    between atoms: _392  and  _393
REMARK  164  A    between atoms: _392  and  _395
REMARK  165  A    between atoms: _395  and  _396
REMARK  166  A    between atoms: _396  and  _397
REMARK  167  A    between atoms: _399  and  _401
REMARK  168  A    between atoms: _401  and  _402
REMARK  169  A    between atoms: _401  and  _404
REMARK  170  A    between atoms: _404  and  _405
REMARK  171  A    between atoms: _408  and  _410
REMARK  172  A    between atoms: _410  and  _411
REMARK  173  A    between atoms: _413  and  _415
REMARK  174  A    between atoms: _415  and  _416
REMARK  175  A    between atoms: _418  and  _420
REMARK  176  A    between atoms: _420  and  _421
REMARK  177  A    between atoms: _420  and  _423
REMARK  178  A    between atoms: _423  and  _424
REMARK  179  A    between atoms: _427  and  _429
REMARK  180  A    between atoms: _429  and  _430
REMARK  181  A    between atoms: _432  and  _434
REMARK  182  A    between atoms: _434  and  _435
REMARK  183  A    between atoms: _437  and  _439
REMARK  184  A    between atoms: _439  and  _440
REMARK  185  A    between atoms: _439  and  _442
REMARK  186  A    between atoms: _442  and  _443
REMARK  187  A    between atoms: _449  and  _451
REMARK  188  A    between atoms: _451  and  _452
REMARK  189  A    between atoms: _451  and  _454
REMARK  190  A    between atoms: _454  and  _455
REMARK  191  A    between atoms: _458  and  _460
REMARK  192  A    between atoms: _460  and  _461
REMARK  193  A    between atoms: _460  and  _463
REMARK  194  A    between atoms: _463  and  _464
REMARK  195  A    between atoms: _467  and  _469
REMARK  196  A    between atoms: _469  and  _470
REMARK  197  A    between atoms: _469  and  _472
REMARK  198  A    between atoms: _472  and  _473
REMARK  199  A    between atoms: _477  and  _478
REMARK  200  A    between atoms: _483  and  _485
REMARK  201  A    between atoms: _485  and  _486
REMARK  202  A    between atoms: _485  and  _488
REMARK  203  A    between atoms: _491  and  _493
REMARK  204  A    between atoms: _493  and  _494
REMARK  205  A    between atoms: _493  and  _496
REMARK  206  A    between atoms: _496  and  _497
REMARK  207  A    between atoms: _502  and  _504
REMARK  208  A    between atoms: _504  and  _505
REMARK  209  A    between atoms: _504  and  _507
REMARK  210  A    between atoms: _507  and  _508
REMARK  211  A    between atoms: _511  and  _513
REMARK  212  A    between atoms: _513  and  _514
REMARK  213  A    between atoms: _513  and  _516
REMARK  214  A    between atoms: _516  and  _517
REMARK  215  A    between atoms: _520  and  _522
REMARK  216  A    between atoms: _522  and  _523
REMARK  217  A    between atoms: _525  and  _527
REMARK  218  A    between atoms: _527  and  _528
REMARK  219  A    between atoms: _527  and  _530
REMARK  220  A    between atoms: _530  and  _531
REMARK  221  A    between atoms: _531  and  _532
REMARK  222  A    between atoms: _532  and  _533
REMARK                            x       y       z     vdW  Elec       q    Type
REMARK                         _______ _______ _______ _____ _____    ______ ____
ROOT
ATOM      1  CA  ILE A   5      16.227  28.691  11.742  0.00  0.00    +0.149 C 
ENDROOT
BRANCH   1   3
ATOM      2  C   ASN A   4      17.467  27.676  13.579  0.00  0.00    +0.241 C 
ATOM      3  N   ILE A   5      16.338  28.181  13.106  0.00  0.00    -0.297 N 
ATOM      4  H   ILE A   5      15.504  28.216  13.726  0.00  0.00    +0.150 HD
ATOM      5  O   ASN A   4      18.507  27.642  12.926  0.00  0.00    -0.273 OA
BRANCH   2   6
ATOM      6  CA  ASN A   4      17.433  27.131  14.997  0.00  0.00    +0.158 C 
BRANCH   6   8
ATOM      7  C   VAL A   3      17.207  24.785  14.401  0.00  0.00    +0.241 C 
ATOM      8  N   ASN A   4      17.955  25.775  14.878  0.00  0.00    -0.297 N 
ATOM      9  H   ASN A   4      18.933  25.578  15.172  0.00  0.00    +0.150 HD
ATOM     10  O   VAL A   3      16.007  24.918  14.129  0.00  0.00    -0.273 OA
BRANCH   7  11
ATOM     11  CA  VAL A   3      17.884  23.425  14.255  0.00  0.00    +0.149 C 
BRANCH  11  14
ATOM     12  C   PRO A   2      17.129  21.283  15.177  0.00  0.00    +0.241 C 
ATOM     13  O   PRO A   2      18.249  21.007  15.614  0.00  0.00    -0.273 OA
ATOM     14  N   VAL A   3      16.867  22.405  14.515  0.00  0.00    -0.297 N 
ATOM     15  H   VAL A   3      15.900  22.565  14.167  0.00  0.00    +0.150 HD
BRANCH  12  19
ATOM     16  C   THR A   1      14.085  21.729  16.061  0.00  0.00    +0.244 C 
ATOM     17  O   THR A   1      14.596  21.887  17.178  0.00  0.00    -0.273 OA
ATOM     18  N   PRO A   2      14.648  20.933  15.133  0.00  0.00    -0.272 N 
ATOM     19  CA  PRO A   2      15.958  20.309  15.355  0.00  0.00    +0.152 C 
ATOM     20  CB  PRO A   2      15.986  19.198  14.302  0.00  0.00    +0.031 C 
ATOM     21  CG  PRO A   2      15.181  19.768  13.185  0.00  0.00    +0.024 C 
ATOM     22  CD  PRO A   2      14.009  20.381  13.921  0.00  0.00    +0.094 C 
BRANCH  16  23
ATOM     23  CA  THR A   1      12.712  22.337  15.736  0.00  0.00    +0.172 C 
BRANCH  23  24
ATOM     24  CB  THR A   1      12.871  23.755  15.147  0.00  0.00    +0.135 C 
ATOM     25  CG2 THR A   1      13.594  24.672  16.116  0.00  0.00    +0.034 C 
BRANCH  24  26
ATOM     26  OG1 THR A   1      13.614  23.684  13.918  0.00  0.00    -0.383 OA
ATOM     27  HG1 THR A   1      14.508  23.298  14.096  0.00  0.00    +0.210 HD
ENDBRANCH  24  26
ENDBRANCH  23  24
BRANCH  23  28
ATOM     28  N   THR A   1      11.941  22.346  16.970  0.00  0.00    -0.236 NA
ATOM     29  H   THR A   1      12.040  23.144  17.629  0.00  0.00    +0.142 HD
ENDBRANCH  23  28
ENDBRANCH  16  23
ENDBRANCH  12  19
ENDBRANCH  11  14
BRANCH  11  30
ATOM     30  CB  VAL A   3      18.430  23.320  12.810  0.00  0.00    +0.027 C 
ATOM     31  CG2 VAL A   3      19.602  24.256  12.608  0.00  0.00    +0.002 C 
ATOM     32  CG1 VAL A   3      18.857  21.901  12.480  0.00  0.00    +0.002 C 
ENDBRANCH  11  30
ENDBRANCH   7  11
ENDBRANCH   6   8
BRANCH   6  33
ATOM     33  CB  ASN A   4      18.323  27.984  15.895  0.00  0.00    +0.114 C 
BRANCH  33  34
ATOM     34  CG  ASN A   4      18.246  27.579  17.352  0.00  0.00    +0.222 C 
ATOM     35  ND2 ASN A   4      19.398  27.461  17.990  0.00  0.00    -0.329 N 
ATOM     36 HD21 ASN A   4      19.411  27.191  18.994  0.00  0.00    +0.145 HD
ATOM     37 HD22 ASN A   4      20.291  27.639  17.488  0.00  0.00    +0.145 HD
ATOM     38  OD1 ASN A   4      17.168  27.381  17.898  0.00  0.00    -0.275 OA
ENDBRANCH  33  34
ENDBRANCH   6  33
ENDBRANCH   2   6
ENDBRANCH   1   3
BRANCH   1  39
ATOM     39  C   ILE A   5      15.956  30.205  11.686  0.00  0.00    +0.241 C 
ATOM     40  O   ILE A   5      15.053  30.703  12.361  0.00  0.00    -0.273 OA
ATOM     41  N   ILE A   6      16.752  30.935  10.910  0.00  0.00    -0.297 N 
ATOM     42  H   ILE A   6      17.546  30.473  10.423  0.00  0.00    +0.150 HD
BRANCH  41  43
ATOM     43  CA  ILE A   6      16.540  32.371  10.723  0.00  0.00    +0.149 C 
BRANCH  43  44
ATOM     44  C   ILE A   6      15.923  32.458   9.324  0.00  0.00    +0.241 C 
ATOM     45  N   GLY A   7      14.629  32.759   9.270  0.00  0.00    -0.295 N 
ATOM     46  H   GLY A   7      14.111  32.946  10.152  0.00  0.00    +0.150 HD
ATOM     47  O   ILE A   6      16.603  32.218   8.323  0.00  0.00    -0.273 OA
BRANCH  45  48
ATOM     48  CA  GLY A   7      13.927  32.831   8.005  0.00  0.00    +0.176 C 
BRANCH  48  49
ATOM     49  C   GLY A   7      13.942  34.180   7.322  0.00  0.00    +0.243 C 
ATOM     50  O   GLY A   7      14.550  35.135   7.813  0.00  0.00    -0.273 OA
ATOM     51  N   ARG A   8      13.215  34.259   6.210  0.00  0.00    -0.298 N 
ATOM     52  H   ARG A   8      12.685  33.417   5.908  0.00  0.00    +0.150 HD
BRANCH  51  53
ATOM     53  CA  ARG A   8      13.121  35.467   5.390  0.00  0.00    +0.137 C 
BRANCH  53  54
ATOM     54  C   ARG A   8      12.617  36.715   6.108  0.00  0.00    +0.227 C 
ATOM     55  O   ARG A   8      13.033  37.822   5.775  0.00  0.00    -0.286 OA
ENDBRANCH  53  54
BRANCH  53  56
ATOM     56  CB  ARG A   8      12.282  35.217   4.140  0.00  0.00    +0.031 C 
BRANCH  56  57
ATOM     57  CG  ARG A   8      12.928  34.327   3.098  0.00  0.00    +0.045 C 
BRANCH  57  58
ATOM     58  CD  ARG A   8      12.163  34.359   1.787  0.00  0.00    +0.174 C 
BRANCH  58  59
ATOM     59  NE  ARG A   8      10.762  33.969   1.951  0.00  0.00    -0.265 N 
ATOM     60  HE  ARG A   8      10.554  32.961   2.098  0.00  0.00    +0.259 HD
ATOM     61  CZ  ARG A   8       9.734  34.817   1.925  0.00  0.00    +0.342 C 
ATOM     62  NH2 ARG A   8       8.491  34.374   2.085  0.00  0.00    -0.292 N 
ATOM     63 HH21 ARG A   8       8.315  33.359   2.232  0.00  0.00    +0.255 HD
ATOM     64 HH22 ARG A   8       7.694  35.042   2.063  0.00  0.00    +0.255 HD
ATOM     65  NH1 ARG A   8       9.940  36.115   1.736  0.00  0.00    -0.292 N 
ATOM     66 HH11 ARG A   8       9.134  36.772   1.717  0.00  0.00    +0.255 HD
ATOM     67 HH12 ARG A   8      10.907  36.475   1.607  0.00  0.00    +0.255 HD
ENDBRANCH  58  59
ENDBRANCH  57  58
ENDBRANCH  56  57
ENDBRANCH  53  56
ENDBRANCH  51  53
ENDBRANCH  48  49
ENDBRANCH  45  48
ENDBRANCH  43  44
BRANCH  43  68
ATOM     68  CB  ILE A   6      17.853  33.192  10.757  0.00  0.00    +0.027 C 
ATOM     69  CG2 ILE A   6      17.565  34.651  10.440  0.00  0.00    +0.002 C 
BRANCH  68  70
ATOM     70  CG1 ILE A   6      18.573  33.097  12.112  0.00  0.00    +0.002 C 
ATOM     71  CD1 ILE A   6      17.754  33.546  13.304  0.00  0.00    +0.000 C 
ENDBRANCH  68  70
ENDBRANCH  43  68
ENDBRANCH  41  43
ENDBRANCH   1  39
BRANCH   1  72
ATOM     72  CB  ILE A   5      15.062  27.969  11.004  0.00  0.00    +0.027 C 
ATOM     73  CG2 ILE A   5      14.908  28.487   9.583  0.00  0.00    +0.002 C 
BRANCH  72  74
ATOM     74  CG1 ILE A   5      15.244  26.445  10.970  0.00  0.00    +0.002 C 
ATOM     75  CD1 ILE A   5      16.369  25.987  10.071  0.00  0.00    +0.000 C 
ENDBRANCH  72  74
ENDBRANCH   1  72
TORSDOF 28
REMARK  Name = ../refined-set-2016/2bpv/2bpv_pocket.pdb
REMARK  222 active torsions:
REMARK  status: ('A' for Active; 'I' for Inactive)
REMARK    1  A    between atoms: _1  and  _3
REMARK    2  A    between atoms: _3  and  _4
REMARK    3  A    between atoms: _3  and  _6
REMARK    4  A    between atoms: _6  and  _7
REMARK    5  A    between atoms: _7  and  _8
REMARK    6  A    between atoms: _8  and  _9
REMARK    7  A    between atoms: _18  and  _20
REMARK    8  A    between atoms: _20  and  _21
REMARK    9  A    between atoms: _20  and  _23
REMARK   10  A    between atoms: _23  and  _24
REMARK   11  A    between atoms: _27  and  _29
REMARK   12  A    between atoms: _29  and  _30
REMARK   13  A    between atoms: _29  and  _32
REMARK   14  A    between atoms: _32  and  _33
REMARK   15  A    between atoms: _36  and  _38
REMARK   16  A    between atoms: _38  and  _39
REMARK   17  A    between atoms: _38  and  _41
REMARK   18  A    between atoms: _41  and  _42
REMARK   19  A    between atoms: _45  and  _47
REMARK   20  A    between atoms: _47  and  _48
REMARK   21  A    between atoms: _47  and  _50
REMARK   22  A    between atoms: _50  and  _51
REMARK   23  A    between atoms: _54  and  _56
REMARK   24  A    between atoms: _56  and  _57
REMARK   25  A    between atoms: _56  and  _59
REMARK   26  A    between atoms: _59  and  _60
REMARK   27  A    between atoms: _63  and  _65
REMARK   28  A    between atoms: _65  and  _66
REMARK   29  A    between atoms: _68  and  _70
REMARK   30  A    between atoms: _70  and  _71
REMARK   31  A    between atoms: _74  and  _76
REMARK   32  A    between atoms: _76  and  _77
REMARK   33  A    between atoms: _76  and  _79
REMARK   34  A    between atoms: _79  and  _80
REMARK   35  A    between atoms: _83  and  _85
REMARK   36  A    between atoms: _85  and  _86
REMARK   37  A    between atoms: _85  and  _88
REMARK   38  A    between atoms: _88  and  _89
REMARK   39  A    between atoms: _92  and  _94
REMARK   40  A    between atoms: _94  and  _95
REMARK   41  A    between atoms: _94  and  _97
REMARK   42  A    between atoms: _97  and  _98
REMARK   43  A    between atoms: _101  and  _103
REMARK   44  A    between atoms: _103  and  _104
REMARK   45  A    between atoms: _103  and  _106
REMARK   46  A    between atoms: _109  and  _111
REMARK   47  A    between atoms: _111  and  _112
REMARK   48  A    between atoms: _111  and  _114
REMARK   49  A    between atoms: _114  and  _115
REMARK   50  A    between atoms: _115  and  _116
REMARK   51  A    between atoms: _118  and  _120
REMARK   52  A    between atoms: _120  and  _121
REMARK   53  A    between atoms: _120  and  _123
REMARK   54  A    between atoms: _123  and  _124
REMARK   55  A    between atoms: _127  and  _129
REMARK   56  A    between atoms: _129  and  _130
REMARK   57  A    between atoms: _132  and  _134
REMARK   58  A    between atoms: _134  and  _135
REMARK   59  A    between atoms: _137  and  _139
REMARK   60  A    between atoms: _139  and  _140
REMARK   61  A    between atoms: _139  and  _142
REMARK   62  A    between atoms: _142  and  _143
REMARK   63  A    between atoms: _146  and  _148
REMARK   64  A    between atoms: _148  and  _149
REMARK   65  A    between atoms: _151  and  _153
REMARK   66  A    between atoms: _153  and  _154
REMARK   67  A    between atoms: _156  and  _158
REMARK   68  A    between atoms: _158  and  _159
REMARK   69  A    between atoms: _158  and  _161
REMARK   70  A    between atoms: _161  and  _162
REMARK   71  A    between atoms: _168  and  _170
REMARK   72  A    between atoms: _170  and  _171
REMARK   73  A    between atoms: _170  and  _173
REMARK   74  A    between atoms: _173  and  _174
REMARK   75  A    between atoms: _177  and  _179
REMARK   76  A    between atoms: _179  and  _180
REMARK   77  A    between atoms: _179  and  _182
REMARK   78  A    between atoms: _185  and  _187
REMARK   79  A    between atoms: _187  and  _188
REMARK   80  A    between atoms: _187  and  _190
REMARK   81  A    between atoms: _190  and  _191
REMARK   82  A    between atoms: _194  and  _196
REMARK   83  A    between atoms: _196  and  _197
REMARK   84  A    between atoms: _196  and  _199
REMARK   85  A    between atoms: _199  and  _200
REMARK   86  A    between atoms: _204  and  _205
REMARK   87  A    between atoms: _210  and  _212
REMARK   88  A    between atoms: _212  and  _213
REMARK   89  A    between atoms: _212  and  _215
REMARK   90  A    between atoms: _218  and  _220
REMARK   91  A    between atoms: _220  and  _221
REMARK   92  A    between atoms: _220  and  _223
REMARK   93  A    between atoms: _223  and  _224
REMARK   94  A    between atoms: _229  and  _231
REMARK   95  A    between atoms: _231  and  _232
REMARK   96  A    between atoms: _231  and  _234
REMARK   97  A    between atoms: _234  and  _235
REMARK   98  A    between atoms: _238  and  _240
REMARK   99  A    between atoms: _240  and  _241
REMARK  100  A    between atoms: _240  and  _243
REMARK  101  A    between atoms: _243  and  _244
REMARK  102  A    between atoms: _247  and  _249
REMARK  103  A    between atoms: _249  and  _250
REMARK  104  A    between atoms: _252  and  _254
REMARK  105  A    between atoms: _254  and  _255
REMARK  106  A    between atoms: _254  and  _257
REMARK  107  A    between atoms: _257  and  _258
REMARK  108  A    between atoms: _258  and  _259
REMARK  109  A    between atoms: _259  and  _260
REMARK  110  A    between atoms: _269  and  _271
REMARK  111  A    between atoms: _271  and  _272
REMARK  112  A    between atoms: _271  and  _274
REMARK  113  A    between atoms: _274  and  _275
REMARK  114  A    between atoms: _275  and  _276
REMARK  115  A    between atoms: _276  and  _277
REMARK  116  A    between atoms: _286  and  _288
REMARK  117  A    between atoms: _288  and  _289
REMARK  118  A    between atoms: _288  and  _291
REMARK  119  A    between atoms: _291  and  _292
REMARK  120  A    between atoms: _295  and  _297
REMARK  121  A    between atoms: _297  and  _298
REMARK  122  A    between atoms: _297  and  _300
REMARK  123  A    between atoms: _300  and  _301
REMARK  124  A    between atoms: _304  and  _306
REMARK  125  A    between atoms: _306  and  _307
REMARK  126  A    between atoms: _306  and  _309
REMARK  127  A    between atoms: _309  and  _310
REMARK  128  A    between atoms: _313  and  _315
REMARK  129  A    between atoms: _315  and  _316
REMARK  130  A    between atoms: _315  and  _318
REMARK  131  A    between atoms: _318  and  _319
REMARK  132  A    between atoms: _322  and  _324
REMARK  133  A    between atoms: _324  and  _325
REMARK  134  A    between atoms: _324  and  _327
REMARK  135  A    between atoms: _327  and  _328
REMARK  136  A    between atoms: _331  and  _333
REMARK  137  A    between atoms: _333  and  _334
REMARK  138  A    between atoms: _336  and  _338
REMARK  139  A    between atoms: _338  and  _339
REMARK  140  A    between atoms: _342  and  _344
REMARK  141  A    between atoms: _344  and  _345
REMARK  142  A    between atoms: _344  and  _347
REMARK  143  A    between atoms: _347  and  _348
REMARK  144  A    between atoms: _351  and  _353
REMARK  145  A    between atoms: _353  and  _354
REMARK  146  A    between atoms: _353  and  _356
REMARK  147  A    between atoms: _356  and  _357
REMARK  148  A    between atoms: _360  and  _362
REMARK  149  A    between atoms: _362  and  _363
REMARK  150  A    between atoms: _362  and  _365
REMARK  151  A    between atoms: _365  and  _366
REMARK  152  A    between atoms: _369  and  _371
REMARK  153  A    between atoms: _371  and  _372
REMARK  154  A    between atoms: _371  and  _374
REMARK  155  A    between atoms: _377  and  _379
REMARK  156  A    between atoms: _379  and  _380
REMARK  157  A    between atoms: _379  and  _382
REMARK  158  A    between atoms: _382  and  _383
REMARK  159  A    between atoms: _383  and  _384
REMARK  160  A    between atoms: _384  and  _385
REMARK  161  A    between atoms: _385  and  _386
REMARK  162  A    between atoms: _390  and  _392
REMARK  163  A    between atoms: _392  and  _393
REMARK  164  A    between atoms: _392  and  _395
REMARK  165  A    between atoms: _395  and  _396
REMARK  166  A    between atoms: _396  and  _397
REMARK  167  A    between atoms: _399  and  _401
REMARK  168  A    between atoms: _401  and  _402
REMARK  169  A    between atoms: _401  and  _404
REMARK  170  A    between atoms: _404  and  _405
REMARK  171  A    between atoms: _408  and  _410
REMARK  172  A    between atoms: _410  and  _411
REMARK  173  A    between atoms: _413  and  _415
REMARK  174  A    between atoms: _415  and  _416
REMARK  175  A    between atoms: _418  and  _420
REMARK  176  A    between atoms: _420  and  _421
REMARK  177  A    between atoms: _420  and  _423
REMARK  178  A    between atoms: _423  and  _424
REMARK  179  A    between atoms: _427  and  _429
REMARK  180  A    between atoms: _429  and  _430
REMARK  181  A    between atoms: _432  and  _434
REMARK  182  A    between atoms: _434  and  _435
REMARK  183  A    between atoms: _437  and  _439
REMARK  184  A    between atoms: _439  and  _440
REMARK  185  A    between atoms: _439  and  _442
REMARK  186  A    between atoms: _442  and  _443
REMARK  187  A    between atoms: _449  and  _451
REMARK  188  A    between atoms: _451  and  _452
REMARK  189  A    between atoms: _451  and  _454
REMARK  190  A    between atoms: _454  and  _455
REMARK  191  A    between atoms: _458  and  _460
REMARK  192  A    between atoms: _460  and  _461
REMARK  193  A    between atoms: _460  and  _463
REMARK  194  A    between atoms: _463  and  _464
REMARK  195  A    between atoms: _467  and  _469
REMARK  196  A    between atoms: _469  and  _470
REMARK  197  A    between atoms: _469  and  _472
REMARK  198  A    between atoms: _472  and  _473
REMARK  199  A    between atoms: _477  and  _478
REMARK  200  A    between atoms: _483  and  _485
REMARK  201  A    between atoms: _485  and  _486
REMARK  202  A    between atoms: _485  and  _488
REMARK  203  A    between atoms: _491  and  _493
REMARK  204  A    between atoms: _493  and  _494
REMARK  205  A    between atoms: _493  and  _496
REMARK  206  A    between atoms: _496  and  _497
REMARK  207  A    between atoms: _502  and  _504
REMARK  208  A    between atoms: _504  and  _505
REMARK  209  A    between atoms: _504  and  _507
REMARK  210  A    between atoms: _507  and  _508
REMARK  211  A    between atoms: _511  and  _513
REMARK  212  A    between atoms: _513  and  _514
REMARK  213  A    between atoms: _513  and  _516
REMARK  214  A    between atoms: _516  and  _517
REMARK  215  A    between atoms: _520  and  _522
REMARK  216  A    between atoms: _522  and  _523
REMARK  217  A    between atoms: _525  and  _527
REMARK  218  A    between atoms: _527  and  _528
REMARK  219  A    between atoms: _527  and  _530
REMARK  220  A    between atoms: _530  and  _531
REMARK  221  A    between atoms: _531  and  _532
REMARK  222  A    between atoms: _532  and  _533
REMARK                            x       y       z     vdW  Elec       q    Type
REMARK                         _______ _______ _______ _____ _____    ______ ____
ROOT
ATOM      1  NE  ARG A   1       6.471  31.084   0.111  0.00  0.00    -0.265 N 
ATOM      2  HE  ARG A   1       6.562  31.946   0.685  0.00  0.00    +0.259 HD
ATOM      3  CZ  ARG A   1       5.451  30.273   0.384  0.00  0.00    +0.342 C 
ATOM      4  NH2 ARG A   1       4.600  30.594   1.351  0.00  0.00    -0.292 N 
ATOM      5 HH21 ARG A   1       4.733  31.474   1.889  0.00  0.00    +0.255 HD
ATOM      6 HH22 ARG A   1       3.801  29.966   1.570  0.00  0.00    +0.255 HD
ATOM      7  NH1 ARG A   1       5.278  29.146  -0.293  0.00  0.00    -0.292 N 
ATOM      8 HH11 ARG A   1       4.477  28.522  -0.069  0.00  0.00    +0.255 HD
ATOM      9 HH12 ARG A   1       5.944  28.886  -1.048  0.00  0.00    +0.255 HD
ENDROOT
BRANCH   1  10
ATOM     10  CD  ARG A   1       7.472  30.863  -0.927  0.00  0.00    +0.174 C 
BRANCH  10  11
ATOM     11  CG  ARG A   1       8.609  31.830  -0.738  0.00  0.00    +0.045 C 
BRANCH  11  12
ATOM     12  CB  ARG A   1       9.053  32.452  -2.030  0.00  0.00    +0.029 C 
BRANCH  12  13
ATOM     13  CA  ARG A   1      10.086  33.581  -1.865  0.00  0.00    +0.133 C 
BRANCH  13  14
ATOM     14  N   ARG A   1       9.438  34.898  -1.837  0.00  0.00    -0.239 NA
ATOM     15  H   ARG A   1       8.417  34.966  -2.024  0.00  0.00    +0.142 HD
ENDBRANCH  13  14
BRANCH  13  16
ATOM     16  C   ARG A   1      11.026  33.543  -3.046  0.00  0.00    +0.224 C 
ATOM     17  O   ARG A   1      10.662  33.965  -4.140  0.00  0.00    -0.287 OA
ENDBRANCH  13  16
ENDBRANCH  12  13
ENDBRANCH  11  12
ENDBRANCH  10  11
ENDBRANCH   1  10
TORSDOF 6
REMARK  Name = ../refined-set-2016/2bpv/2bpv_pocket.pdb
REMARK  222 active torsions:
REMARK  status: ('A' for Active; 'I' for Inactive)
REMARK    1  A    between atoms: _1  and  _3
REMARK    2  A    between atoms: _3  and  _4
REMARK    3  A    between atoms: _3  and  _6
REMARK    4  A    between atoms: _6  and  _7
REMARK    5  A    between atoms: _7  and  _8
REMARK    6  A    between atoms: _8  and  _9
REMARK    7  A    between atoms: _18  and  _20
REMARK    8  A    between atoms: _20  and  _21
REMARK    9  A    between atoms: _20  and  _23
REMARK   10  A    between atoms: _23  and  _24
REMARK   11  A    between atoms: _27  and  _29
REMARK   12  A    between atoms: _29  and  _30
REMARK   13  A    between atoms: _29  and  _32
REMARK   14  A    between atoms: _32  and  _33
REMARK   15  A    between atoms: _36  and  _38
REMARK   16  A    between atoms: _38  and  _39
REMARK   17  A    between atoms: _38  and  _41
REMARK   18  A    between atoms: _41  and  _42
REMARK   19  A    between atoms: _45  and  _47
REMARK   20  A    between atoms: _47  and  _48
REMARK   21  A    between atoms: _47  and  _50
REMARK   22  A    between atoms: _50  and  _51
REMARK   23  A    between atoms: _54  and  _56
REMARK   24  A    between atoms: _56  and  _57
REMARK   25  A    between atoms: _56  and  _59
REMARK   26  A    between atoms: _59  and  _60
REMARK   27  A    between atoms: _63  and  _65
REMARK   28  A    between atoms: _65  and  _66
REMARK   29  A    between atoms: _68  and  _70
REMARK   30  A    between atoms: _70  and  _71
REMARK   31  A    between atoms: _74  and  _76
REMARK   32  A    between atoms: _76  and  _77
REMARK   33  A    between atoms: _76  and  _79
REMARK   34  A    between atoms: _79  and  _80
REMARK   35  A    between atoms: _83  and  _85
REMARK   36  A    between atoms: _85  and  _86
REMARK   37  A    between atoms: _85  and  _88
REMARK   38  A    between atoms: _88  and  _89
REMARK   39  A    between atoms: _92  and  _94
REMARK   40  A    between atoms: _94  and  _95
REMARK   41  A    between atoms: _94  and  _97
REMARK   42  A    between atoms: _97  and  _98
REMARK   43  A    between atoms: _101  and  _103
REMARK   44  A    between atoms: _103  and  _104
REMARK   45  A    between atoms: _103  and  _106
REMARK   46  A    between atoms: _109  and  _111
REMARK   47  A    between atoms: _111  and  _112
REMARK   48  A    between atoms: _111  and  _114
REMARK   49  A    between atoms: _114  and  _115
REMARK   50  A    between atoms: _115  and  _116
REMARK   51  A    between atoms: _118  and  _120
REMARK   52  A    between atoms: _120  and  _121
REMARK   53  A    between atoms: _120  and  _123
REMARK   54  A    between atoms: _123  and  _124
REMARK   55  A    between atoms: _127  and  _129
REMARK   56  A    between atoms: _129  and  _130
REMARK   57  A    between atoms: _132  and  _134
REMARK   58  A    between atoms: _134  and  _135
REMARK   59  A    between atoms: _137  and  _139
REMARK   60  A    between atoms: _139  and  _140
REMARK   61  A    between atoms: _139  and  _142
REMARK   62  A    between atoms: _142  and  _143
REMARK   63  A    between atoms: _146  and  _148
REMARK   64  A    between atoms: _148  and  _149
REMARK   65  A    between atoms: _151  and  _153
REMARK   66  A    between atoms: _153  and  _154
REMARK   67  A    between atoms: _156  and  _158
REMARK   68  A    between atoms: _158  and  _159
REMARK   69  A    between atoms: _158  and  _161
REMARK   70  A    between atoms: _161  and  _162
REMARK   71  A    between atoms: _168  and  _170
REMARK   72  A    between atoms: _170  and  _171
REMARK   73  A    between atoms: _170  and  _173
REMARK   74  A    between atoms: _173  and  _174
REMARK   75  A    between atoms: _177  and  _179
REMARK   76  A    between atoms: _179  and  _180
REMARK   77  A    between atoms: _179  and  _182
REMARK   78  A    between atoms: _185  and  _187
REMARK   79  A    between atoms: _187  and  _188
REMARK   80  A    between atoms: _187  and  _190
REMARK   81  A    between atoms: _190  and  _191
REMARK   82  A    between atoms: _194  and  _196
REMARK   83  A    between atoms: _196  and  _197
REMARK   84  A    between atoms: _196  and  _199
REMARK   85  A    between atoms: _199  and  _200
REMARK   86  A    between atoms: _204  and  _205
REMARK   87  A    between atoms: _210  and  _212
REMARK   88  A    between atoms: _212  and  _213
REMARK   89  A    between atoms: _212  and  _215
REMARK   90  A    between atoms: _218  and  _220
REMARK   91  A    between atoms: _220  and  _221
REMARK   92  A    between atoms: _220  and  _223
REMARK   93  A    between atoms: _223  and  _224
REMARK   94  A    between atoms: _229  and  _231
REMARK   95  A    between atoms: _231  and  _232
REMARK   96  A    between atoms: _231  and  _234
REMARK   97  A    between atoms: _234  and  _235
REMARK   98  A    between atoms: _238  and  _240
REMARK   99  A    between atoms: _240  and  _241
REMARK  100  A    between atoms: _240  and  _243
REMARK  101  A    between atoms: _243  and  _244
REMARK  102  A    between atoms: _247  and  _249
REMARK  103  A    between atoms: _249  and  _250
REMARK  104  A    between atoms: _252  and  _254
REMARK  105  A    between atoms: _254  and  _255
REMARK  106  A    between atoms: _254  and  _257
REMARK  107  A    between atoms: _257  and  _258
REMARK  108  A    between atoms: _258  and  _259
REMARK  109  A    between atoms: _259  and  _260
REMARK  110  A    between atoms: _269  and  _271
REMARK  111  A    between atoms: _271  and  _272
REMARK  112  A    between atoms: _271  and  _274
REMARK  113  A    between atoms: _274  and  _275
REMARK  114  A    between atoms: _275  and  _276
REMARK  115  A    between atoms: _276  and  _277
REMARK  116  A    between atoms: _286  and  _288
REMARK  117  A    between atoms: _288  and  _289
REMARK  118  A    between atoms: _288  and  _291
REMARK  119  A    between atoms: _291  and  _292
REMARK  120  A    between atoms: _295  and  _297
REMARK  121  A    between atoms: _297  and  _298
REMARK  122  A    between atoms: _297  and  _300
REMARK  123  A    between atoms: _300  and  _301
REMARK  124  A    between atoms: _304  and  _306
REMARK  125  A    between atoms: _306  and  _307
REMARK  126  A    between atoms: _306  and  _309
REMARK  127  A    between atoms: _309  and  _310
REMARK  128  A    between atoms: _313  and  _315
REMARK  129  A    between atoms: _315  and  _316
REMARK  130  A    between atoms: _315  and  _318
REMARK  131  A    between atoms: _318  and  _319
REMARK  132  A    between atoms: _322  and  _324
REMARK  133  A    between atoms: _324  and  _325
REMARK  134  A    between atoms: _324  and  _327
REMARK  135  A    between atoms: _327  and  _328
REMARK  136  A    between atoms: _331  and  _333
REMARK  137  A    between atoms: _333  and  _334
REMARK  138  A    between atoms: _336  and  _338
REMARK  139  A    between atoms: _338  and  _339
REMARK  140  A    between atoms: _342  and  _344
REMARK  141  A    between atoms: _344  and  _345
REMARK  142  A    between atoms: _344  and  _347
REMARK  143  A    between atoms: _347  and  _348
REMARK  144  A    between atoms: _351  and  _353
REMARK  145  A    between atoms: _353  and  _354
REMARK  146  A    between atoms: _353  and  _356
REMARK  147  A    between atoms: _356  and  _357
REMARK  148  A    between atoms: _360  and  _362
REMARK  149  A    between atoms: _362  and  _363
REMARK  150  A    between atoms: _362  and  _365
REMARK  151  A    between atoms: _365  and  _366
REMARK  152  A    between atoms: _369  and  _371
REMARK  153  A    between atoms: _371  and  _372
REMARK  154  A    between atoms: _371  and  _374
REMARK  155  A    between atoms: _377  and  _379
REMARK  156  A    between atoms: _379  and  _380
REMARK  157  A    between atoms: _379  and  _382
REMARK  158  A    between atoms: _382  and  _383
REMARK  159  A    between atoms: _383  and  _384
REMARK  160  A    between atoms: _384  and  _385
REMARK  161  A    between atoms: _385  and  _386
REMARK  162  A    between atoms: _390  and  _392
REMARK  163  A    between atoms: _392  and  _393
REMARK  164  A    between atoms: _392  and  _395
REMARK  165  A    between atoms: _395  and  _396
REMARK  166  A    between atoms: _396  and  _397
REMARK  167  A    between atoms: _399  and  _401
REMARK  168  A    between atoms: _401  and  _402
REMARK  169  A    between atoms: _401  and  _404
REMARK  170  A    between atoms: _404  and  _405
REMARK  171  A    between atoms: _408  and  _410
REMARK  172  A    between atoms: _410  and  _411
REMARK  173  A    between atoms: _413  and  _415
REMARK  174  A    between atoms: _415  and  _416
REMARK  175  A    between atoms: _418  and  _420
REMARK  176  A    between atoms: _420  and  _421
REMARK  177  A    between atoms: _420  and  _423
REMARK  178  A    between atoms: _423  and  _424
REMARK  179  A    between atoms: _427  and  _429
REMARK  180  A    between atoms: _429  and  _430
REMARK  181  A    between atoms: _432  and  _434
REMARK  182  A    between atoms: _434  and  _435
REMARK  183  A    between atoms: _437  and  _439
REMARK  184  A    between atoms: _439  and  _440
REMARK  185  A    between atoms: _439  and  _442
REMARK  186  A    between atoms: _442  and  _443
REMARK  187  A    between atoms: _449  and  _451
REMARK  188  A    between atoms: _451  and  _452
REMARK  189  A    between atoms: _451  and  _454
REMARK  190  A    between atoms: _454  and  _455
REMARK  191  A    between atoms: _458  and  _460
REMARK  192  A    between atoms: _460  and  _461
REMARK  193  A    between atoms: _460  and  _463
REMARK  194  A    between atoms: _463  and  _464
REMARK  195  A    between atoms: _467  and  _469
REMARK  196  A    between atoms: _469  and  _470
REMARK  197  A    between atoms: _469  and  _472
REMARK  198  A    between atoms: _472  and  _473
REMARK  199  A    between atoms: _477  and  _478
REMARK  200  A    between atoms: _483  and  _485
REMARK  201  A    between atoms: _485  and  _486
REMARK  202  A    between atoms: _485  and  _488
REMARK  203  A    between atoms: _491  and  _493
REMARK  204  A    between atoms: _493  and  _494
REMARK  205  A    between atoms: _493  and  _496
REMARK  206  A    between atoms: _496  and  _497
REMARK  207  A    between atoms: _502  and  _504
REMARK  208  A    between atoms: _504  and  _505
REMARK  209  A    between atoms: _504  and  _507
REMARK  210  A    between atoms: _507  and  _508
REMARK  211  A    between atoms: _511  and  _513
REMARK  212  A    between atoms: _513  and  _514
REMARK  213  A    between atoms: _513  and  _516
REMARK  214  A    between atoms: _516  and  _517
REMARK  215  A    between atoms: _520  and  _522
REMARK  216  A    between atoms: _522  and  _523
REMARK  217  A    between atoms: _525  and  _527
REMARK  218  A    between atoms: _527  and  _528
REMARK  219  A    between atoms: _527  and  _530
REMARK  220  A    between atoms: _530  and  _531
REMARK  221  A    between atoms: _531  and  _532
REMARK  222  A    between atoms: _532  and  _533
REMARK                            x       y       z     vdW  Elec       q    Type
REMARK                         _______ _______ _______ _____ _____    ______ ____
ROOT
ATOM      1  CA  LEU A   1      11.436  30.982  -6.725  0.00  0.00    +0.133 C 
ENDROOT
BRANCH   1   2
ATOM      2  N   LEU A   1      11.832  31.978  -5.732  0.00  0.00    -0.239 NA
ATOM      3  H   LEU A   1      11.244  32.829  -5.622  0.00  0.00    +0.142 HD
ENDBRANCH   1   2
BRANCH   1   4
ATOM      4  C   LEU A   1      12.043  31.285  -8.072  0.00  0.00    +0.224 C 
ATOM      5  O   LEU A   1      11.967  32.415  -8.552  0.00  0.00    -0.287 OA
ENDBRANCH   1   4
BRANCH   1   6
ATOM      6  CB  LEU A   1       9.918  30.941  -6.888  0.00  0.00    +0.025 C 
BRANCH   6   7
ATOM      7  CG  LEU A   1       9.161  30.563  -5.623  0.00  0.00    +0.002 C 
ATOM      8  CD2 LEU A   1       9.412  29.114  -5.257  0.00  0.00    +0.000 C 
ATOM      9  CD1 LEU A   1       7.692  30.809  -5.842  0.00  0.00    +0.000 C 
ENDBRANCH   6   7
ENDBRANCH   1   6
TORSDOF 4
REMARK  Name = ../refined-set-2016/2bpv/2bpv_pocket.pdb
REMARK  222 active torsions:
REMARK  status: ('A' for Active; 'I' for Inactive)
REMARK    1  A    between atoms: _1  and  _3
REMARK    2  A    between atoms: _3  and  _4
REMARK    3  A    between atoms: _3  and  _6
REMARK    4  A    between atoms: _6  and  _7
REMARK    5  A    between atoms: _7  and  _8
REMARK    6  A    between atoms: _8  and  _9
REMARK    7  A    between atoms: _18  and  _20
REMARK    8  A    between atoms: _20  and  _21
REMARK    9  A    between atoms: _20  and  _23
REMARK   10  A    between atoms: _23  and  _24
REMARK   11  A    between atoms: _27  and  _29
REMARK   12  A    between atoms: _29  and  _30
REMARK   13  A    between atoms: _29  and  _32
REMARK   14  A    between atoms: _32  and  _33
REMARK   15  A    between atoms: _36  and  _38
REMARK   16  A    between atoms: _38  and  _39
REMARK   17  A    between atoms: _38  and  _41
REMARK   18  A    between atoms: _41  and  _42
REMARK   19  A    between atoms: _45  and  _47
REMARK   20  A    between atoms: _47  and  _48
REMARK   21  A    between atoms: _47  and  _50
REMARK   22  A    between atoms: _50  and  _51
REMARK   23  A    between atoms: _54  and  _56
REMARK   24  A    between atoms: _56  and  _57
REMARK   25  A    between atoms: _56  and  _59
REMARK   26  A    between atoms: _59  and  _60
REMARK   27  A    between atoms: _63  and  _65
REMARK   28  A    between atoms: _65  and  _66
REMARK   29  A    between atoms: _68  and  _70
REMARK   30  A    between atoms: _70  and  _71
REMARK   31  A    between atoms: _74  and  _76
REMARK   32  A    between atoms: _76  and  _77
REMARK   33  A    between atoms: _76  and  _79
REMARK   34  A    between atoms: _79  and  _80
REMARK   35  A    between atoms: _83  and  _85
REMARK   36  A    between atoms: _85  and  _86
REMARK   37  A    between atoms: _85  and  _88
REMARK   38  A    between atoms: _88  and  _89
REMARK   39  A    between atoms: _92  and  _94
REMARK   40  A    between atoms: _94  and  _95
REMARK   41  A    between atoms: _94  and  _97
REMARK   42  A    between atoms: _97  and  _98
REMARK   43  A    between atoms: _101  and  _103
REMARK   44  A    between atoms: _103  and  _104
REMARK   45  A    between atoms: _103  and  _106
REMARK   46  A    between atoms: _109  and  _111
REMARK   47  A    between atoms: _111  and  _112
REMARK   48  A    between atoms: _111  and  _114
REMARK   49  A    between atoms: _114  and  _115
REMARK   50  A    between atoms: _115  and  _116
REMARK   51  A    between atoms: _118  and  _120
REMARK   52  A    between atoms: _120  and  _121
REMARK   53  A    between atoms: _120  and  _123
REMARK   54  A    between atoms: _123  and  _124
REMARK   55  A    between atoms: _127  and  _129
REMARK   56  A    between atoms: _129  and  _130
REMARK   57  A    between atoms: _132  and  _134
REMARK   58  A    between atoms: _134  and  _135
REMARK   59  A    between atoms: _137  and  _139
REMARK   60  A    between atoms: _139  and  _140
REMARK   61  A    between atoms: _139  and  _142
REMARK   62  A    between atoms: _142  and  _143
REMARK   63  A    between atoms: _146  and  _148
REMARK   64  A    between atoms: _148  and  _149
REMARK   65  A    between atoms: _151  and  _153
REMARK   66  A    between atoms: _153  and  _154
REMARK   67  A    between atoms: _156  and  _158
REMARK   68  A    between atoms: _158  and  _159
REMARK   69  A    between atoms: _158  and  _161
REMARK   70  A    between atoms: _161  and  _162
REMARK   71  A    between atoms: _168  and  _170
REMARK   72  A    between atoms: _170  and  _171
REMARK   73  A    between atoms: _170  and  _173
REMARK   74  A    between atoms: _173  and  _174
REMARK   75  A    between atoms: _177  and  _179
REMARK   76  A    between atoms: _179  and  _180
REMARK   77  A    between atoms: _179  and  _182
REMARK   78  A    between atoms: _185  and  _187
REMARK   79  A    between atoms: _187  and  _188
REMARK   80  A    between atoms: _187  and  _190
REMARK   81  A    between atoms: _190  and  _191
REMARK   82  A    between atoms: _194  and  _196
REMARK   83  A    between atoms: _196  and  _197
REMARK   84  A    between atoms: _196  and  _199
REMARK   85  A    between atoms: _199  and  _200
REMARK   86  A    between atoms: _204  and  _205
REMARK   87  A    between atoms: _210  and  _212
REMARK   88  A    between atoms: _212  and  _213
REMARK   89  A    between atoms: _212  and  _215
REMARK   90  A    between atoms: _218  and  _220
REMARK   91  A    between atoms: _220  and  _221
REMARK   92  A    between atoms: _220  and  _223
REMARK   93  A    between atoms: _223  and  _224
REMARK   94  A    between atoms: _229  and  _231
REMARK   95  A    between atoms: _231  and  _232
REMARK   96  A    between atoms: _231  and  _234
REMARK   97  A    between atoms: _234  and  _235
REMARK   98  A    between atoms: _238  and  _240
REMARK   99  A    between atoms: _240  and  _241
REMARK  100  A    between atoms: _240  and  _243
REMARK  101  A    between atoms: _243  and  _244
REMARK  102  A    between atoms: _247  and  _249
REMARK  103  A    between atoms: _249  and  _250
REMARK  104  A    between atoms: _252  and  _254
REMARK  105  A    between atoms: _254  and  _255
REMARK  106  A    between atoms: _254  and  _257
REMARK  107  A    between atoms: _257  and  _258
REMARK  108  A    between atoms: _258  and  _259
REMARK  109  A    between atoms: _259  and  _260
REMARK  110  A    between atoms: _269  and  _271
REMARK  111  A    between atoms: _271  and  _272
REMARK  112  A    between atoms: _271  and  _274
REMARK  113  A    between atoms: _274  and  _275
REMARK  114  A    between atoms: _275  and  _276
REMARK  115  A    between atoms: _276  and  _277
REMARK  116  A    between atoms: _286  and  _288
REMARK  117  A    between atoms: _288  and  _289
REMARK  118  A    between atoms: _288  and  _291
REMARK  119  A    between atoms: _291  and  _292
REMARK  120  A    between atoms: _295  and  _297
REMARK  121  A    between atoms: _297  and  _298
REMARK  122  A    between atoms: _297  and  _300
REMARK  123  A    between atoms: _300  and  _301
REMARK  124  A    between atoms: _304  and  _306
REMARK  125  A    between atoms: _306  and  _307
REMARK  126  A    between atoms: _306  and  _309
REMARK  127  A    between atoms: _309  and  _310
REMARK  128  A    between atoms: _313  and  _315
REMARK  129  A    between atoms: _315  and  _316
REMARK  130  A    between atoms: _315  and  _318
REMARK  131  A    between atoms: _318  and  _319
REMARK  132  A    between atoms: _322  and  _324
REMARK  133  A    between atoms: _324  and  _325
REMARK  134  A    between atoms: _324  and  _327
REMARK  135  A    between atoms: _327  and  _328
REMARK  136  A    between atoms: _331  and  _333
REMARK  137  A    between atoms: _333  and  _334
REMARK  138  A    between atoms: _336  and  _338
REMARK  139  A    between atoms: _338  and  _339
REMARK  140  A    between atoms: _342  and  _344
REMARK  141  A    between atoms: _344  and  _345
REMARK  142  A    between atoms: _344  and  _347
REMARK  143  A    between atoms: _347  and  _348
REMARK  144  A    between atoms: _351  and  _353
REMARK  145  A    between atoms: _353  and  _354
REMARK  146  A    between atoms: _353  and  _356
REMARK  147  A    between atoms: _356  and  _357
REMARK  148  A    between atoms: _360  and  _362
REMARK  149  A    between atoms: _362  and  _363
REMARK  150  A    between atoms: _362  and  _365
REMARK  151  A    between atoms: _365  and  _366
REMARK  152  A    between atoms: _369  and  _371
REMARK  153  A    between atoms: _371  and  _372
REMARK  154  A    between atoms: _371  and  _374
REMARK  155  A    between atoms: _377  and  _379
REMARK  156  A    between atoms: _379  and  _380
REMARK  157  A    between atoms: _379  and  _382
REMARK  158  A    between atoms: _382  and  _383
REMARK  159  A    between atoms: _383  and  _384
REMARK  160  A    between atoms: _384  and  _385
REMARK  161  A    between atoms: _385  and  _386
REMARK  162  A    between atoms: _390  and  _392
REMARK  163  A    between atoms: _392  and  _393
REMARK  164  A    between atoms: _392  and  _395
REMARK  165  A    between atoms: _395  and  _396
REMARK  166  A    between atoms: _396  and  _397
REMARK  167  A    between atoms: _399  and  _401
REMARK  168  A    between atoms: _401  and  _402
REMARK  169  A    between atoms: _401  and  _404
REMARK  170  A    between atoms: _404  and  _405
REMARK  171  A    between atoms: _408  and  _410
REMARK  172  A    between atoms: _410  and  _411
REMARK  173  A    between atoms: _413  and  _415
REMARK  174  A    between atoms: _415  and  _416
REMARK  175  A    between atoms: _418  and  _420
REMARK  176  A    between atoms: _420  and  _421
REMARK  177  A    between atoms: _420  and  _423
REMARK  178  A    between atoms: _423  and  _424
REMARK  179  A    between atoms: _427  and  _429
REMARK  180  A    between atoms: _429  and  _430
REMARK  181  A    between atoms: _432  and  _434
REMARK  182  A    between atoms: _434  and  _435
REMARK  183  A    between atoms: _437  and  _439
REMARK  184  A    between atoms: _439  and  _440
REMARK  185  A    between atoms: _439  and  _442
REMARK  186  A    between atoms: _442  and  _443
REMARK  187  A    between atoms: _449  and  _451
REMARK  188  A    between atoms: _451  and  _452
REMARK  189  A    between atoms: _451  and  _454
REMARK  190  A    between atoms: _454  and  _455
REMARK  191  A    between atoms: _458  and  _460
REMARK  192  A    between atoms: _460  and  _461
REMARK  193  A    between atoms: _460  and  _463
REMARK  194  A    between atoms: _463  and  _464
REMARK  195  A    between atoms: _467  and  _469
REMARK  196  A    between atoms: _469  and  _470
REMARK  197  A    between atoms: _469  and  _472
REMARK  198  A    between atoms: _472  and  _473
REMARK  199  A    between atoms: _477  and  _478
REMARK  200  A    between atoms: _483  and  _485
REMARK  201  A    between atoms: _485  and  _486
REMARK  202  A    between atoms: _485  and  _488
REMARK  203  A    between atoms: _491  and  _493
REMARK  204  A    between atoms: _493  and  _494
REMARK  205  A    between atoms: _493  and  _496
REMARK  206  A    between atoms: _496  and  _497
REMARK  207  A    between atoms: _502  and  _504
REMARK  208  A    between atoms: _504  and  _505
REMARK  209  A    between atoms: _504  and  _507
REMARK  210  A    between atoms: _507  and  _508
REMARK  211  A    between atoms: _511  and  _513
REMARK  212  A    between atoms: _513  and  _514
REMARK  213  A    between atoms: _513  and  _516
REMARK  214  A    between atoms: _516  and  _517
REMARK  215  A    between atoms: _520  and  _522
REMARK  216  A    between atoms: _522  and  _523
REMARK  217  A    between atoms: _525  and  _527
REMARK  218  A    between atoms: _527  and  _528
REMARK  219  A    between atoms: _527  and  _530
REMARK  220  A    between atoms: _530  and  _531
REMARK  221  A    between atoms: _531  and  _532
REMARK  222  A    between atoms: _532  and  _533
REMARK                            x       y       z     vdW  Elec       q    Type
REMARK                         _______ _______ _______ _____ _____    ______ ____
ROOT
ATOM      1  C   GLY A   5      18.615  24.210   4.266  0.00  0.00    +0.243 C 
ATOM      2  O   GLY A   5      18.360  23.418   5.168  0.00  0.00    -0.273 OA
ATOM      3  N   ALA A   6      18.654  23.869   2.981  0.00  0.00    -0.297 N 
ATOM      4  H   ALA A   6      18.825  24.611   2.273  0.00  0.00    +0.150 HD
ENDROOT
BRANCH   3   5
ATOM      5  CA  ALA A   6      18.467  22.503   2.527  0.00  0.00    +0.149 C 
ATOM      6  CB  ALA A   6      17.491  22.476   1.369  0.00  0.00    +0.031 C 
BRANCH   5   7
ATOM      7  C   ALA A   6      19.817  21.969   2.081  0.00  0.00    +0.241 C 
ATOM      8  N   ASP A   7      20.260  20.867   2.683  0.00  0.00    -0.297 N 
ATOM      9  H   ASP A   7      19.689  20.426   3.432  0.00  0.00    +0.150 HD
ATOM     10  O   ALA A   6      20.471  22.575   1.232  0.00  0.00    -0.273 OA
BRANCH   8  11
ATOM     11  CA  ASP A   7      21.541  20.269   2.304  0.00  0.00    +0.160 C 
BRANCH  11  12
ATOM     12  C   ASP A   7      21.419  19.648   0.918  0.00  0.00    +0.241 C 
ATOM     13  N   ASP A   8      20.263  19.039   0.656  0.00  0.00    -0.297 N 
ATOM     14  H   ASP A   8      19.515  19.059   1.378  0.00  0.00    +0.150 HD
ATOM     15  O   ASP A   7      22.313  19.785   0.085  0.00  0.00    -0.273 OA
BRANCH  13  16
ATOM     16  CA  ASP A   8      20.002  18.346  -0.598  0.00  0.00    +0.160 C 
BRANCH  16  17
ATOM     17  C   ASP A   8      18.933  19.018  -1.437  0.00  0.00    +0.241 C 
ATOM     18  O   ASP A   8      18.140  19.817  -0.935  0.00  0.00    -0.273 OA
ATOM     19  N   THR A   9      18.871  18.596  -2.696  0.00  0.00    -0.295 N 
ATOM     20  H   THR A   9      19.558  17.878  -3.003  0.00  0.00    +0.150 HD
BRANCH  19  21
ATOM     21  CA  THR A   9      17.904  19.073  -3.673  0.00  0.00    +0.176 C 
BRANCH  21  22
ATOM     22  C   THR A   9      16.802  18.015  -3.706  0.00  0.00    +0.243 C 
ATOM     23  N   VAL A  10      15.577  18.406  -3.381  0.00  0.00    -0.298 N 
ATOM     24  H   VAL A  10      15.414  19.406  -3.145  0.00  0.00    +0.150 HD
ATOM     25  O   THR A   9      17.064  16.861  -4.018  0.00  0.00    -0.273 OA
BRANCH  23  26
ATOM     26  CA  VAL A  10      14.454  17.482  -3.344  0.00  0.00    +0.137 C 
BRANCH  26  27
ATOM     27  CB  VAL A  10      13.863  17.383  -1.928  0.00  0.00    +0.026 C 
ATOM     28  CG2 VAL A  10      14.974  17.225  -0.889  0.00  0.00    +0.002 C 
ATOM     29  CG1 VAL A  10      12.887  16.229  -1.849  0.00  0.00    +0.002 C 
ENDBRANCH  26  27
BRANCH  26  30
ATOM     30  C   VAL A  10      13.364  17.954  -4.298  0.00  0.00    +0.227 C 
ATOM     31  O   VAL A  10      12.826  19.050  -4.145  0.00  0.00    -0.286 OA
ENDBRANCH  26  30
ENDBRANCH  23  26
ENDBRANCH  21  22
BRANCH  21  32
ATOM     32  CB  THR A   9      18.566  19.194  -5.050  0.00  0.00    +0.137 C 
ATOM     33  CG2 THR A   9      17.548  19.475  -6.142  0.00  0.00    +0.034 C 
BRANCH  32  34
ATOM     34  OG1 THR A   9      19.545  20.239  -5.008  0.00  0.00    -0.382 OA
ATOM     35  HG1 THR A   9      19.976  20.322  -5.895  0.00  0.00    +0.210 HD
ENDBRANCH  32  34
ENDBRANCH  21  32
ENDBRANCH  19  21
ENDBRANCH  16  17
BRANCH  16  36
ATOM     36  CB  ASP A   8      19.519  16.920  -0.314  0.00  0.00    +0.143 C 
BRANCH  36  37
ATOM     37  CG  ASP A   8      20.382  16.198   0.693  0.00  0.00    +0.367 C 
ATOM     38  OD2 ASP A   8      19.872  15.898   1.793  0.00  0.00    -0.246 OA
ATOM     39  OD1 ASP A   8      21.560  15.917   0.387  0.00  0.00    -0.246 OA
ENDBRANCH  36  37
ENDBRANCH  16  36
ENDBRANCH  13  16
ENDBRANCH  11  12
BRANCH  11  40
ATOM     40  CB  ASP A   7      21.948  19.175   3.297  0.00  0.00    +0.143 C 
BRANCH  40  41
ATOM     41  CG  ASP A   7      21.983  19.663   4.718  0.00  0.00    +0.367 C 
ATOM     42  OD2 ASP A   7      21.202  19.153   5.540  0.00  0.00    -0.246 OA
ATOM     43  OD1 ASP A   7      22.789  20.546   5.021  0.00  0.00    -0.246 OA
ENDBRANCH  40  41
ENDBRANCH  11  40
ENDBRANCH   8  11
ENDBRANCH   5   7
ENDBRANCH   3   5
BRANCH   1  44
ATOM     44  CA  GLY A   5      18.839  25.673   4.589  0.00  0.00    +0.176 C 
BRANCH  44  46
ATOM     45  C   THR A   4      20.170  26.735   2.883  0.00  0.00    +0.243 C 
ATOM     46  N   GLY A   5      18.971  26.486   3.397  0.00  0.00    -0.295 N 
ATOM     47  H   GLY A   5      18.122  26.877   2.941  0.00  0.00    +0.150 HD
ATOM     48  O   THR A   4      21.209  26.292   3.376  0.00  0.00    -0.273 OA
BRANCH  45  49
ATOM     49  CA  THR A   4      20.204  27.602   1.617  0.00  0.00    +0.176 C 
BRANCH  49  51
ATOM     50  C   ASP A   3      18.332  26.738   0.305  0.00  0.00    +0.241 C 
ATOM     51  N   THR A   4      18.891  27.745   0.980  0.00  0.00    -0.295 N 
ATOM     52  H   THR A   4      18.384  28.650   1.056  0.00  0.00    +0.150 HD
ATOM     53  O   ASP A   3      18.849  25.625   0.244  0.00  0.00    -0.273 OA
BRANCH  50  54
ATOM     54  CA  ASP A   3      16.956  26.981  -0.325  0.00  0.00    +0.160 C 
BRANCH  54  57
ATOM     55  C   LEU A   2      16.538  28.359  -2.274  0.00  0.00    +0.241 C 
ATOM     56  O   LEU A   2      16.232  29.334  -1.583  0.00  0.00    -0.273 OA
ATOM     57  N   ASP A   3      16.975  27.224  -1.754  0.00  0.00    -0.297 N 
ATOM     58  H   ASP A   3      17.342  26.486  -2.388  0.00  0.00    +0.150 HD
BRANCH  55  59
ATOM     59  CA  LEU A   2      16.493  28.422  -3.808  0.00  0.00    +0.149 C 
BRANCH  59  62
ATOM     60  C   LEU A   1      14.354  27.263  -4.029  0.00  0.00    +0.238 C 
ATOM     61  O   LEU A   1      14.874  26.179  -3.761  0.00  0.00    -0.274 OA
ATOM     62  N   LEU A   2      15.060  28.392  -4.122  0.00  0.00    -0.297 N 
ATOM     63  H   LEU A   2      14.585  29.267  -4.423  0.00  0.00    +0.150 HD
BRANCH  60  64
ATOM     64  CA  LEU A   1      12.851  27.332  -4.321  0.00  0.00    +0.145 C 
BRANCH  64  65
ATOM     65  N   LEU A   1      12.477  26.397  -5.370  0.00  0.00    -0.238 NA
ATOM     66  H   LEU A   1      12.312  25.403  -5.112  0.00  0.00    +0.142 HD
ENDBRANCH  64  65
BRANCH  64  67
ATOM     67  CB  LEU A   1      12.052  26.975  -3.058  0.00  0.00    +0.026 C 
BRANCH  67  68
ATOM     68  CG  LEU A   1      12.268  27.728  -1.746  0.00  0.00    +0.002 C 
ATOM     69  CD2 LEU A   1      11.565  26.969  -0.626  0.00  0.00    +0.000 C 
ATOM     70  CD1 LEU A   1      11.717  29.136  -1.851  0.00  0.00    +0.000 C 
ENDBRANCH  67  68
ENDBRANCH  64  67
ENDBRANCH  60  64
ENDBRANCH  59  62
BRANCH  59  71
ATOM     71  CB  LEU A   2      17.149  29.702  -4.347  0.00  0.00    +0.029 C 
BRANCH  71  72
ATOM     72  CG  LEU A   2      17.041  29.848  -5.872  0.00  0.00    +0.002 C 
ATOM     73  CD2 LEU A   2      17.760  31.115  -6.306  0.00  0.00    +0.000 C 
ATOM     74  CD1 LEU A   2      17.629  28.640  -6.587  0.00  0.00    +0.000 C 
ENDBRANCH  71  72
ENDBRANCH  59  71
ENDBRANCH  55  59
ENDBRANCH  54  57
BRANCH  54  75
ATOM     75  CB  ASP A   3      16.060  25.751  -0.146  0.00  0.00    +0.143 C 
BRANCH  75  76
ATOM     76  CG  ASP A   3      15.534  25.582   1.249  0.00  0.00    +0.367 C 
ATOM     77  OD2 ASP A   3      16.131  26.103   2.211  0.00  0.00    -0.246 OA
ATOM     78  OD1 ASP A   3      14.496  24.906   1.371  0.00  0.00    -0.246 OA
ENDBRANCH  75  76
ENDBRANCH  54  75
ENDBRANCH  50  54
ENDBRANCH  49  51
BRANCH  49  79
ATOM     79  CB  THR A   4      20.827  28.971   1.956  0.00  0.00    +0.137 C 
ATOM     80  CG2 THR A   4      21.045  29.792   0.689  0.00  0.00    +0.034 C 
BRANCH  79  81
ATOM     81  OG1 THR A   4      19.961  29.692   2.843  0.00  0.00    -0.382 OA
ATOM     82  HG1 THR A   4      19.838  29.172   3.677  0.00  0.00    +0.210 HD
ENDBRANCH  79  81
ENDBRANCH  49  79
ENDBRANCH  45  49
ENDBRANCH  44  46
ENDBRANCH   1  44
TORSDOF 35
REMARK  Name = ../refined-set-2016/2bpv/2bpv_pocket.pdb
REMARK  222 active torsions:
REMARK  status: ('A' for Active; 'I' for Inactive)
REMARK    1  A    between atoms: _1  and  _3
REMARK    2  A    between atoms: _3  and  _4
REMARK    3  A    between atoms: _3  and  _6
REMARK    4  A    between atoms: _6  and  _7
REMARK    5  A    between atoms: _7  and  _8
REMARK    6  A    between atoms: _8  and  _9
REMARK    7  A    between atoms: _18  and  _20
REMARK    8  A    between atoms: _20  and  _21
REMARK    9  A    between atoms: _20  and  _23
REMARK   10  A    between atoms: _23  and  _24
REMARK   11  A    between atoms: _27  and  _29
REMARK   12  A    between atoms: _29  and  _30
REMARK   13  A    between atoms: _29  and  _32
REMARK   14  A    between atoms: _32  and  _33
REMARK   15  A    between atoms: _36  and  _38
REMARK   16  A    between atoms: _38  and  _39
REMARK   17  A    between atoms: _38  and  _41
REMARK   18  A    between atoms: _41  and  _42
REMARK   19  A    between atoms: _45  and  _47
REMARK   20  A    between atoms: _47  and  _48
REMARK   21  A    between atoms: _47  and  _50
REMARK   22  A    between atoms: _50  and  _51
REMARK   23  A    between atoms: _54  and  _56
REMARK   24  A    between atoms: _56  and  _57
REMARK   25  A    between atoms: _56  and  _59
REMARK   26  A    between atoms: _59  and  _60
REMARK   27  A    between atoms: _63  and  _65
REMARK   28  A    between atoms: _65  and  _66
REMARK   29  A    between atoms: _68  and  _70
REMARK   30  A    between atoms: _70  and  _71
REMARK   31  A    between atoms: _74  and  _76
REMARK   32  A    between atoms: _76  and  _77
REMARK   33  A    between atoms: _76  and  _79
REMARK   34  A    between atoms: _79  and  _80
REMARK   35  A    between atoms: _83  and  _85
REMARK   36  A    between atoms: _85  and  _86
REMARK   37  A    between atoms: _85  and  _88
REMARK   38  A    between atoms: _88  and  _89
REMARK   39  A    between atoms: _92  and  _94
REMARK   40  A    between atoms: _94  and  _95
REMARK   41  A    between atoms: _94  and  _97
REMARK   42  A    between atoms: _97  and  _98
REMARK   43  A    between atoms: _101  and  _103
REMARK   44  A    between atoms: _103  and  _104
REMARK   45  A    between atoms: _103  and  _106
REMARK   46  A    between atoms: _109  and  _111
REMARK   47  A    between atoms: _111  and  _112
REMARK   48  A    between atoms: _111  and  _114
REMARK   49  A    between atoms: _114  and  _115
REMARK   50  A    between atoms: _115  and  _116
REMARK   51  A    between atoms: _118  and  _120
REMARK   52  A    between atoms: _120  and  _121
REMARK   53  A    between atoms: _120  and  _123
REMARK   54  A    between atoms: _123  and  _124
REMARK   55  A    between atoms: _127  and  _129
REMARK   56  A    between atoms: _129  and  _130
REMARK   57  A    between atoms: _132  and  _134
REMARK   58  A    between atoms: _134  and  _135
REMARK   59  A    between atoms: _137  and  _139
REMARK   60  A    between atoms: _139  and  _140
REMARK   61  A    between atoms: _139  and  _142
REMARK   62  A    between atoms: _142  and  _143
REMARK   63  A    between atoms: _146  and  _148
REMARK   64  A    between atoms: _148  and  _149
REMARK   65  A    between atoms: _151  and  _153
REMARK   66  A    between atoms: _153  and  _154
REMARK   67  A    between atoms: _156  and  _158
REMARK   68  A    between atoms: _158  and  _159
REMARK   69  A    between atoms: _158  and  _161
REMARK   70  A    between atoms: _161  and  _162
REMARK   71  A    between atoms: _168  and  _170
REMARK   72  A    between atoms: _170  and  _171
REMARK   73  A    between atoms: _170  and  _173
REMARK   74  A    between atoms: _173  and  _174
REMARK   75  A    between atoms: _177  and  _179
REMARK   76  A    between atoms: _179  and  _180
REMARK   77  A    between atoms: _179  and  _182
REMARK   78  A    between atoms: _185  and  _187
REMARK   79  A    between atoms: _187  and  _188
REMARK   80  A    between atoms: _187  and  _190
REMARK   81  A    between atoms: _190  and  _191
REMARK   82  A    between atoms: _194  and  _196
REMARK   83  A    between atoms: _196  and  _197
REMARK   84  A    between atoms: _196  and  _199
REMARK   85  A    between atoms: _199  and  _200
REMARK   86  A    between atoms: _204  and  _205
REMARK   87  A    between atoms: _210  and  _212
REMARK   88  A    between atoms: _212  and  _213
REMARK   89  A    between atoms: _212  and  _215
REMARK   90  A    between atoms: _218  and  _220
REMARK   91  A    between atoms: _220  and  _221
REMARK   92  A    between atoms: _220  and  _223
REMARK   93  A    between atoms: _223  and  _224
REMARK   94  A    between atoms: _229  and  _231
REMARK   95  A    between atoms: _231  and  _232
REMARK   96  A    between atoms: _231  and  _234
REMARK   97  A    between atoms: _234  and  _235
REMARK   98  A    between atoms: _238  and  _240
REMARK   99  A    between atoms: _240  and  _241
REMARK  100  A    between atoms: _240  and  _243
REMARK  101  A    between atoms: _243  and  _244
REMARK  102  A    between atoms: _247  and  _249
REMARK  103  A    between atoms: _249  and  _250
REMARK  104  A    between atoms: _252  and  _254
REMARK  105  A    between atoms: _254  and  _255
REMARK  106  A    between atoms: _254  and  _257
REMARK  107  A    between atoms: _257  and  _258
REMARK  108  A    between atoms: _258  and  _259
REMARK  109  A    between atoms: _259  and  _260
REMARK  110  A    between atoms: _269  and  _271
REMARK  111  A    between atoms: _271  and  _272
REMARK  112  A    between atoms: _271  and  _274
REMARK  113  A    between atoms: _274  and  _275
REMARK  114  A    between atoms: _275  and  _276
REMARK  115  A    between atoms: _276  and  _277
REMARK  116  A    between atoms: _286  and  _288
REMARK  117  A    between atoms: _288  and  _289
REMARK  118  A    between atoms: _288  and  _291
REMARK  119  A    between atoms: _291  and  _292
REMARK  120  A    between atoms: _295  and  _297
REMARK  121  A    between atoms: _297  and  _298
REMARK  122  A    between atoms: _297  and  _300
REMARK  123  A    between atoms: _300  and  _301
REMARK  124  A    between atoms: _304  and  _306
REMARK  125  A    between atoms: _306  and  _307
REMARK  126  A    between atoms: _306  and  _309
REMARK  127  A    between atoms: _309  and  _310
REMARK  128  A    between atoms: _313  and  _315
REMARK  129  A    between atoms: _315  and  _316
REMARK  130  A    between atoms: _315  and  _318
REMARK  131  A    between atoms: _318  and  _319
REMARK  132  A    between atoms: _322  and  _324
REMARK  133  A    between atoms: _324  and  _325
REMARK  134  A    between atoms: _324  and  _327
REMARK  135  A    between atoms: _327  and  _328
REMARK  136  A    between atoms: _331  and  _333
REMARK  137  A    between atoms: _333  and  _334
REMARK  138  A    between atoms: _336  and  _338
REMARK  139  A    between atoms: _338  and  _339
REMARK  140  A    between atoms: _342  and  _344
REMARK  141  A    between atoms: _344  and  _345
REMARK  142  A    between atoms: _344  and  _347
REMARK  143  A    between atoms: _347  and  _348
REMARK  144  A    between atoms: _351  and  _353
REMARK  145  A    between atoms: _353  and  _354
REMARK  146  A    between atoms: _353  and  _356
REMARK  147  A    between atoms: _356  and  _357
REMARK  148  A    between atoms: _360  and  _362
REMARK  149  A    between atoms: _362  and  _363
REMARK  150  A    between atoms: _362  and  _365
REMARK  151  A    between atoms: _365  and  _366
REMARK  152  A    between atoms: _369  and  _371
REMARK  153  A    between atoms: _371  and  _372
REMARK  154  A    between atoms: _371  and  _374
REMARK  155  A    between atoms: _377  and  _379
REMARK  156  A    between atoms: _379  and  _380
REMARK  157  A    between atoms: _379  and  _382
REMARK  158  A    between atoms: _382  and  _383
REMARK  159  A    between atoms: _383  and  _384
REMARK  160  A    between atoms: _384  and  _385
REMARK  161  A    between atoms: _385  and  _386
REMARK  162  A    between atoms: _390  and  _392
REMARK  163  A    between atoms: _392  and  _393
REMARK  164  A    between atoms: _392  and  _395
REMARK  165  A    between atoms: _395  and  _396
REMARK  166  A    between atoms: _396  and  _397
REMARK  167  A    between atoms: _399  and  _401
REMARK  168  A    between atoms: _401  and  _402
REMARK  169  A    between atoms: _401  and  _404
REMARK  170  A    between atoms: _404  and  _405
REMARK  171  A    between atoms: _408  and  _410
REMARK  172  A    between atoms: _410  and  _411
REMARK  173  A    between atoms: _413  and  _415
REMARK  174  A    between atoms: _415  and  _416
REMARK  175  A    between atoms: _418  and  _420
REMARK  176  A    between atoms: _420  and  _421
REMARK  177  A    between atoms: _420  and  _423
REMARK  178  A    between atoms: _423  and  _424
REMARK  179  A    between atoms: _427  and  _429
REMARK  180  A    between atoms: _429  and  _430
REMARK  181  A    between atoms: _432  and  _434
REMARK  182  A    between atoms: _434  and  _435
REMARK  183  A    between atoms: _437  and  _439
REMARK  184  A    between atoms: _439  and  _440
REMARK  185  A    between atoms: _439  and  _442
REMARK  186  A    between atoms: _442  and  _443
REMARK  187  A    between atoms: _449  and  _451
REMARK  188  A    between atoms: _451  and  _452
REMARK  189  A    between atoms: _451  and  _454
REMARK  190  A    between atoms: _454  and  _455
REMARK  191  A    between atoms: _458  and  _460
REMARK  192  A    between atoms: _460  and  _461
REMARK  193  A    between atoms: _460  and  _463
REMARK  194  A    between atoms: _463  and  _464
REMARK  195  A    between atoms: _467  and  _469
REMARK  196  A    between atoms: _469  and  _470
REMARK  197  A    between atoms: _469  and  _472
REMARK  198  A    between atoms: _472  and  _473
REMARK  199  A    between atoms: _477  and  _478
REMARK  200  A    between atoms: _483  and  _485
REMARK  201  A    between atoms: _485  and  _486
REMARK  202  A    between atoms: _485  and  _488
REMARK  203  A    between atoms: _491  and  _493
REMARK  204  A    between atoms: _493  and  _494
REMARK  205  A    between atoms: _493  and  _496
REMARK  206  A    between atoms: _496  and  _497
REMARK  207  A    between atoms: _502  and  _504
REMARK  208  A    between atoms: _504  and  _505
REMARK  209  A    between atoms: _504  and  _507
REMARK  210  A    between atoms: _507  and  _508
REMARK  211  A    between atoms: _511  and  _513
REMARK  212  A    between atoms: _513  and  _514
REMARK  213  A    between atoms: _513  and  _516
REMARK  214  A    between atoms: _516  and  _517
REMARK  215  A    between atoms: _520  and  _522
REMARK  216  A    between atoms: _522  and  _523
REMARK  217  A    between atoms: _525  and  _527
REMARK  218  A    between atoms: _527  and  _528
REMARK  219  A    between atoms: _527  and  _530
REMARK  220  A    between atoms: _530  and  _531
REMARK  221  A    between atoms: _531  and  _532
REMARK  222  A    between atoms: _532  and  _533
REMARK                            x       y       z     vdW  Elec       q    Type
REMARK                         _______ _______ _______ _____ _____    ______ ____
ROOT
ATOM      1  C   GLY A   5      12.459  18.736   9.076  0.00  0.00    +0.243 C 
ATOM      2  O   GLY A   5      12.803  18.229  10.147  0.00  0.00    -0.273 OA
ATOM      3  N   ILE A   6      11.579  19.727   8.997  0.00  0.00    -0.297 N 
ATOM      4  H   ILE A   6      11.283  20.076   8.063  0.00  0.00    +0.150 HD
ENDROOT
BRANCH   3   5
ATOM      5  CA  ILE A   6      11.023  20.331  10.194  0.00  0.00    +0.149 C 
BRANCH   5   6
ATOM      6  C   ILE A   6      10.035  19.413  10.917  0.00  0.00    +0.241 C 
ATOM      7  O   ILE A   6      10.058  19.310  12.146  0.00  0.00    -0.273 OA
ATOM      8  N   GLY A   7       9.214  18.693  10.150  0.00  0.00    -0.295 N 
ATOM      9  H   GLY A   7       9.273  18.775   9.115  0.00  0.00    +0.150 HD
BRANCH   8  10
ATOM     10  CA  GLY A   7       8.237  17.795  10.747  0.00  0.00    +0.176 C 
BRANCH  10  11
ATOM     11  C   GLY A   7       8.709  16.368  10.975  0.00  0.00    +0.243 C 
ATOM     12  O   GLY A   7       7.963  15.554  11.514  0.00  0.00    -0.273 OA
ATOM     13  N   GLY A   8       9.942  16.062  10.593  0.00  0.00    -0.295 N 
ATOM     14  H   GLY A   8      10.547  16.793  10.167  0.00  0.00    +0.150 HD
BRANCH  13  15
ATOM     15  CA  GLY A   8      10.450  14.718  10.765  0.00  0.00    +0.176 C 
BRANCH  15  16
ATOM     16  C   GLY A   8      11.073  14.172   9.492  0.00  0.00    +0.243 C 
ATOM     17  N   PHE A   9      11.200  12.851   9.424  0.00  0.00    -0.297 N 
ATOM     18  H   PHE A   9      10.842  12.272  10.210  0.00  0.00    +0.150 HD
ATOM     19  O   GLY A   8      11.358  14.921   8.560  0.00  0.00    -0.273 OA
BRANCH  17  20
ATOM     20  CA  PHE A   9      11.820  12.187   8.292  0.00  0.00    +0.153 C 
BRANCH  20  21
ATOM     21  C   PHE A   9      10.869  11.665   7.243  0.00  0.00    +0.241 C 
ATOM     22  O   PHE A   9       9.709  11.387   7.526  0.00  0.00    -0.273 OA
ATOM     23  N   ILE A  10      11.366  11.598   6.014  0.00  0.00    -0.298 N 
ATOM     24  H   ILE A  10      12.333  11.940   5.846  0.00  0.00    +0.150 HD
BRANCH  23  25
ATOM     25  CA  ILE A  10      10.607  11.063   4.894  0.00  0.00    +0.137 C 
BRANCH  25  26
ATOM     26  C   ILE A  10      11.571  10.206   4.069  0.00  0.00    +0.227 C 
ATOM     27  O   ILE A  10      12.789  10.344   4.177  0.00  0.00    -0.286 OA
ENDBRANCH  25  26
BRANCH  25  28
ATOM     28  CB  ILE A  10       9.970  12.152   3.995  0.00  0.00    +0.026 C 
ATOM     29  CG2 ILE A  10       8.882  12.891   4.756  0.00  0.00    +0.002 C 
BRANCH  28  30
ATOM     30  CG1 ILE A  10      11.001  13.110   3.385  0.00  0.00    +0.002 C 
ATOM     31  CD1 ILE A  10      10.470  13.936   2.222  0.00  0.00    +0.000 C 
ENDBRANCH  28  30
ENDBRANCH  25  28
ENDBRANCH  23  25
ENDBRANCH  20  21
BRANCH  20  32
ATOM     32  CB  PHE A   9      12.691  11.034   8.791  0.00  0.00    +0.055 C 
BRANCH  32  33
ATOM     33  CG  PHE A   9      13.927  11.475   9.511  0.00  0.00    -0.020 A 
ATOM     34  CD2 PHE A   9      13.854  11.968  10.808  0.00  0.00    -0.004 A 
ATOM     35  CE2 PHE A   9      14.996  12.413  11.467  0.00  0.00    -0.000 A 
ATOM     36  CZ  PHE A   9      16.227  12.373  10.827  0.00  0.00    -0.000 A 
ATOM     37  CE1 PHE A   9      16.312  11.877   9.529  0.00  0.00    -0.000 A 
ATOM     38  CD1 PHE A   9      15.164  11.435   8.879  0.00  0.00    -0.004 A 
ENDBRANCH  32  33
ENDBRANCH  20  32
ENDBRANCH  17  20
ENDBRANCH  15  16
ENDBRANCH  13  15
ENDBRANCH  10  11
ENDBRANCH   8  10
ENDBRANCH   5   6
BRANCH   5  39
ATOM     39  CB  ILE A   6      10.402  21.713   9.892  0.00  0.00    +0.027 C 
ATOM     40  CG2 ILE A   6       8.962  21.593   9.408  0.00  0.00    +0.002 C 
BRANCH  39  41
ATOM     41  CG1 ILE A   6      10.537  22.577  11.146  0.00  0.00    +0.002 C 
ATOM     42  CD1 ILE A   6      11.986  22.869  11.491  0.00  0.00    +0.000 C 
ENDBRANCH  39  41
ENDBRANCH   5  39
ENDBRANCH   3   5
BRANCH   1  43
ATOM     43  CA  GLY A   5      12.978  18.196   7.767  0.00  0.00    +0.176 C 
BRANCH  43  45
ATOM     44  C   GLY A   4      14.600  16.408   7.753  0.00  0.00    +0.243 C 
ATOM     45  N   GLY A   5      13.353  16.812   7.940  0.00  0.00    -0.295 N 
ATOM     46  H   GLY A   5      12.629  16.119   8.217  0.00  0.00    +0.150 HD
ATOM     47  O   GLY A   4      15.504  17.153   7.387  0.00  0.00    -0.273 OA
BRANCH  44  48
ATOM     48  CA  GLY A   4      14.852  14.935   7.984  0.00  0.00    +0.176 C 
BRANCH  48  50
ATOM     49  C   ILE A   3      15.001  13.513   6.036  0.00  0.00    +0.241 C 
ATOM     50  N   GLY A   4      15.599  14.320   6.905  0.00  0.00    -0.295 N 
ATOM     51  H   GLY A   4      16.616  14.513   6.810  0.00  0.00    +0.150 HD
ATOM     52  O   ILE A   3      13.815  13.181   6.117  0.00  0.00    -0.273 OA
BRANCH  49  53
ATOM     53  CA  ILE A   3      15.895  12.938   4.957  0.00  0.00    +0.149 C 
BRANCH  53  56
ATOM     54  C   MET A   2      16.402  10.578   4.749  0.00  0.00    +0.241 C 
ATOM     55  O   MET A   2      17.600  10.782   4.956  0.00  0.00    -0.273 OA
ATOM     56  N   ILE A   3      15.506  11.557   4.692  0.00  0.00    -0.297 N 
ATOM     57  H   ILE A   3      14.517  11.337   4.456  0.00  0.00    +0.150 HD
BRANCH  54  58
ATOM     58  CA  MET A   2      15.914   9.167   4.484  0.00  0.00    +0.149 C 
BRANCH  58  60
ATOM     59  C   LYS A   1      16.476   8.374   2.246  0.00  0.00    +0.238 C 
ATOM     60  N   MET A   2      16.844   8.655   3.485  0.00  0.00    -0.297 N 
ATOM     61  H   MET A   2      17.836   8.505   3.757  0.00  0.00    +0.150 HD
ATOM     62  O   LYS A   1      15.312   8.425   1.865  0.00  0.00    -0.274 OA
BRANCH  59  63
ATOM     63  CA  LYS A   1      17.580   7.886   1.319  0.00  0.00    +0.145 C 
BRANCH  63  64
ATOM     64  N   LYS A   1      17.041   6.822   0.477  0.00  0.00    -0.238 NA
ATOM     65  H   LYS A   1      16.026   6.823   0.252  0.00  0.00    +0.142 HD
ENDBRANCH  63  64
BRANCH  63  66
ATOM     66  CB  LYS A   1      18.068   9.044   0.430  0.00  0.00    +0.026 C 
BRANCH  66  67
ATOM     67  CG  LYS A   1      19.426   9.634   0.798  0.00  0.00    -0.000 C 
BRANCH  67  68
ATOM     68  CD  LYS A   1      19.339  10.678   1.891  0.00  0.00    -0.024 C 
BRANCH  68  69
ATOM     69  CE  LYS A   1      20.715  11.263   2.220  0.00  0.00    -0.086 C 
BRANCH  69  70
ATOM     70  NZ  LYS A   1      21.315  12.033   1.098  0.00  0.00    +0.380 N 
ATOM     71  HZ1 LYS A   1      22.244  12.400   1.389  0.00  0.00    -0.089 HD
ATOM     72  HZ2 LYS A   1      20.690  12.826   0.850  0.00  0.00    -0.089 HD
ATOM     73  HZ3 LYS A   1      21.430  11.410   0.274  0.00  0.00    -0.089 HD
ENDBRANCH  69  70
ENDBRANCH  68  69
ENDBRANCH  67  68
ENDBRANCH  66  67
ENDBRANCH  63  66
ENDBRANCH  59  63
ENDBRANCH  58  60
BRANCH  58  74
ATOM     74  CB  MET A   2      16.024   8.373   5.790  0.00  0.00    +0.041 C 
BRANCH  74  75
ATOM     75  CG  MET A   2      15.297   7.042   5.818  0.00  0.00    +0.060 C 
BRANCH  75  76
ATOM     76  SD  MET A   2      13.605   7.182   6.414  0.00  0.00    -0.139 S 
ATOM     77  CE  MET A   2      13.909   7.409   8.172  0.00  0.00    +0.069 C 
ENDBRANCH  75  76
ENDBRANCH  74  75
ENDBRANCH  58  74
ENDBRANCH  54  58
ENDBRANCH  53  56
BRANCH  53  78
ATOM     78  CB  ILE A   3      15.864  13.830   3.693  0.00  0.00    +0.027 C 
ATOM     79  CG2 ILE A   3      17.016  13.464   2.765  0.00  0.00    +0.002 C 
BRANCH  78  80
ATOM     80  CG1 ILE A   3      14.520  13.782   2.964  0.00  0.00    +0.002 C 
ATOM     81  CD1 ILE A   3      14.500  14.587   1.684  0.00  0.00    +0.000 C 
ENDBRANCH  78  80
ENDBRANCH  53  78
ENDBRANCH  49  53
ENDBRANCH  48  50
ENDBRANCH  44  48
ENDBRANCH  43  45
ENDBRANCH   1  43
TORSDOF 36
REMARK  Name = ../refined-set-2016/2bpv/2bpv_pocket.pdb
REMARK  222 active torsions:
REMARK  status: ('A' for Active; 'I' for Inactive)
REMARK    1  A    between atoms: _1  and  _3
REMARK    2  A    between atoms: _3  and  _4
REMARK    3  A    between atoms: _3  and  _6
REMARK    4  A    between atoms: _6  and  _7
REMARK    5  A    between atoms: _7  and  _8
REMARK    6  A    between atoms: _8  and  _9
REMARK    7  A    between atoms: _18  and  _20
REMARK    8  A    between atoms: _20  and  _21
REMARK    9  A    between atoms: _20  and  _23
REMARK   10  A    between atoms: _23  and  _24
REMARK   11  A    between atoms: _27  and  _29
REMARK   12  A    between atoms: _29  and  _30
REMARK   13  A    between atoms: _29  and  _32
REMARK   14  A    between atoms: _32  and  _33
REMARK   15  A    between atoms: _36  and  _38
REMARK   16  A    between atoms: _38  and  _39
REMARK   17  A    between atoms: _38  and  _41
REMARK   18  A    between atoms: _41  and  _42
REMARK   19  A    between atoms: _45  and  _47
REMARK   20  A    between atoms: _47  and  _48
REMARK   21  A    between atoms: _47  and  _50
REMARK   22  A    between atoms: _50  and  _51
REMARK   23  A    between atoms: _54  and  _56
REMARK   24  A    between atoms: _56  and  _57
REMARK   25  A    between atoms: _56  and  _59
REMARK   26  A    between atoms: _59  and  _60
REMARK   27  A    between atoms: _63  and  _65
REMARK   28  A    between atoms: _65  and  _66
REMARK   29  A    between atoms: _68  and  _70
REMARK   30  A    between atoms: _70  and  _71
REMARK   31  A    between atoms: _74  and  _76
REMARK   32  A    between atoms: _76  and  _77
REMARK   33  A    between atoms: _76  and  _79
REMARK   34  A    between atoms: _79  and  _80
REMARK   35  A    between atoms: _83  and  _85
REMARK   36  A    between atoms: _85  and  _86
REMARK   37  A    between atoms: _85  and  _88
REMARK   38  A    between atoms: _88  and  _89
REMARK   39  A    between atoms: _92  and  _94
REMARK   40  A    between atoms: _94  and  _95
REMARK   41  A    between atoms: _94  and  _97
REMARK   42  A    between atoms: _97  and  _98
REMARK   43  A    between atoms: _101  and  _103
REMARK   44  A    between atoms: _103  and  _104
REMARK   45  A    between atoms: _103  and  _106
REMARK   46  A    between atoms: _109  and  _111
REMARK   47  A    between atoms: _111  and  _112
REMARK   48  A    between atoms: _111  and  _114
REMARK   49  A    between atoms: _114  and  _115
REMARK   50  A    between atoms: _115  and  _116
REMARK   51  A    between atoms: _118  and  _120
REMARK   52  A    between atoms: _120  and  _121
REMARK   53  A    between atoms: _120  and  _123
REMARK   54  A    between atoms: _123  and  _124
REMARK   55  A    between atoms: _127  and  _129
REMARK   56  A    between atoms: _129  and  _130
REMARK   57  A    between atoms: _132  and  _134
REMARK   58  A    between atoms: _134  and  _135
REMARK   59  A    between atoms: _137  and  _139
REMARK   60  A    between atoms: _139  and  _140
REMARK   61  A    between atoms: _139  and  _142
REMARK   62  A    between atoms: _142  and  _143
REMARK   63  A    between atoms: _146  and  _148
REMARK   64  A    between atoms: _148  and  _149
REMARK   65  A    between atoms: _151  and  _153
REMARK   66  A    between atoms: _153  and  _154
REMARK   67  A    between atoms: _156  and  _158
REMARK   68  A    between atoms: _158  and  _159
REMARK   69  A    between atoms: _158  and  _161
REMARK   70  A    between atoms: _161  and  _162
REMARK   71  A    between atoms: _168  and  _170
REMARK   72  A    between atoms: _170  and  _171
REMARK   73  A    between atoms: _170  and  _173
REMARK   74  A    between atoms: _173  and  _174
REMARK   75  A    between atoms: _177  and  _179
REMARK   76  A    between atoms: _179  and  _180
REMARK   77  A    between atoms: _179  and  _182
REMARK   78  A    between atoms: _185  and  _187
REMARK   79  A    between atoms: _187  and  _188
REMARK   80  A    between atoms: _187  and  _190
REMARK   81  A    between atoms: _190  and  _191
REMARK   82  A    between atoms: _194  and  _196
REMARK   83  A    between atoms: _196  and  _197
REMARK   84  A    between atoms: _196  and  _199
REMARK   85  A    between atoms: _199  and  _200
REMARK   86  A    between atoms: _204  and  _205
REMARK   87  A    between atoms: _210  and  _212
REMARK   88  A    between atoms: _212  and  _213
REMARK   89  A    between atoms: _212  and  _215
REMARK   90  A    between atoms: _218  and  _220
REMARK   91  A    between atoms: _220  and  _221
REMARK   92  A    between atoms: _220  and  _223
REMARK   93  A    between atoms: _223  and  _224
REMARK   94  A    between atoms: _229  and  _231
REMARK   95  A    between atoms: _231  and  _232
REMARK   96  A    between atoms: _231  and  _234
REMARK   97  A    between atoms: _234  and  _235
REMARK   98  A    between atoms: _238  and  _240
REMARK   99  A    between atoms: _240  and  _241
REMARK  100  A    between atoms: _240  and  _243
REMARK  101  A    between atoms: _243  and  _244
REMARK  102  A    between atoms: _247  and  _249
REMARK  103  A    between atoms: _249  and  _250
REMARK  104  A    between atoms: _252  and  _254
REMARK  105  A    between atoms: _254  and  _255
REMARK  106  A    between atoms: _254  and  _257
REMARK  107  A    between atoms: _257  and  _258
REMARK  108  A    between atoms: _258  and  _259
REMARK  109  A    between atoms: _259  and  _260
REMARK  110  A    between atoms: _269  and  _271
REMARK  111  A    between atoms: _271  and  _272
REMARK  112  A    between atoms: _271  and  _274
REMARK  113  A    between atoms: _274  and  _275
REMARK  114  A    between atoms: _275  and  _276
REMARK  115  A    between atoms: _276  and  _277
REMARK  116  A    between atoms: _286  and  _288
REMARK  117  A    between atoms: _288  and  _289
REMARK  118  A    between atoms: _288  and  _291
REMARK  119  A    between atoms: _291  and  _292
REMARK  120  A    between atoms: _295  and  _297
REMARK  121  A    between atoms: _297  and  _298
REMARK  122  A    between atoms: _297  and  _300
REMARK  123  A    between atoms: _300  and  _301
REMARK  124  A    between atoms: _304  and  _306
REMARK  125  A    between atoms: _306  and  _307
REMARK  126  A    between atoms: _306  and  _309
REMARK  127  A    between atoms: _309  and  _310
REMARK  128  A    between atoms: _313  and  _315
REMARK  129  A    between atoms: _315  and  _316
REMARK  130  A    between atoms: _315  and  _318
REMARK  131  A    between atoms: _318  and  _319
REMARK  132  A    between atoms: _322  and  _324
REMARK  133  A    between atoms: _324  and  _325
REMARK  134  A    between atoms: _324  and  _327
REMARK  135  A    between atoms: _327  and  _328
REMARK  136  A    between atoms: _331  and  _333
REMARK  137  A    between atoms: _333  and  _334
REMARK  138  A    between atoms: _336  and  _338
REMARK  139  A    between atoms: _338  and  _339
REMARK  140  A    between atoms: _342  and  _344
REMARK  141  A    between atoms: _344  and  _345
REMARK  142  A    between atoms: _344  and  _347
REMARK  143  A    between atoms: _347  and  _348
REMARK  144  A    between atoms: _351  and  _353
REMARK  145  A    between atoms: _353  and  _354
REMARK  146  A    between atoms: _353  and  _356
REMARK  147  A    between atoms: _356  and  _357
REMARK  148  A    between atoms: _360  and  _362
REMARK  149  A    between atoms: _362  and  _363
REMARK  150  A    between atoms: _362  and  _365
REMARK  151  A    between atoms: _365  and  _366
REMARK  152  A    between atoms: _369  and  _371
REMARK  153  A    between atoms: _371  and  _372
REMARK  154  A    between atoms: _371  and  _374
REMARK  155  A    between atoms: _377  and  _379
REMARK  156  A    between atoms: _379  and  _380
REMARK  157  A    between atoms: _379  and  _382
REMARK  158  A    between atoms: _382  and  _383
REMARK  159  A    between atoms: _383  and  _384
REMARK  160  A    between atoms: _384  and  _385
REMARK  161  A    between atoms: _385  and  _386
REMARK  162  A    between atoms: _390  and  _392
REMARK  163  A    between atoms: _392  and  _393
REMARK  164  A    between atoms: _392  and  _395
REMARK  165  A    between atoms: _395  and  _396
REMARK  166  A    between atoms: _396  and  _397
REMARK  167  A    between atoms: _399  and  _401
REMARK  168  A    between atoms: _401  and  _402
REMARK  169  A    between atoms: _401  and  _404
REMARK  170  A    between atoms: _404  and  _405
REMARK  171  A    between atoms: _408  and  _410
REMARK  172  A    between atoms: _410  and  _411
REMARK  173  A    between atoms: _413  and  _415
REMARK  174  A    between atoms: _415  and  _416
REMARK  175  A    between atoms: _418  and  _420
REMARK  176  A    between atoms: _420  and  _421
REMARK  177  A    between atoms: _420  and  _423
REMARK  178  A    between atoms: _423  and  _424
REMARK  179  A    between atoms: _427  and  _429
REMARK  180  A    between atoms: _429  and  _430
REMARK  181  A    between atoms: _432  and  _434
REMARK  182  A    between atoms: _434  and  _435
REMARK  183  A    between atoms: _437  and  _439
REMARK  184  A    between atoms: _439  and  _440
REMARK  185  A    between atoms: _439  and  _442
REMARK  186  A    between atoms: _442  and  _443
REMARK  187  A    between atoms: _449  and  _451
REMARK  188  A    between atoms: _451  and  _452
REMARK  189  A    between atoms: _451  and  _454
REMARK  190  A    between atoms: _454  and  _455
REMARK  191  A    between atoms: _458  and  _460
REMARK  192  A    between atoms: _460  and  _461
REMARK  193  A    between atoms: _460  and  _463
REMARK  194  A    between atoms: _463  and  _464
REMARK  195  A    between atoms: _467  and  _469
REMARK  196  A    between atoms: _469  and  _470
REMARK  197  A    between atoms: _469  and  _472
REMARK  198  A    between atoms: _472  and  _473
REMARK  199  A    between atoms: _477  and  _478
REMARK  200  A    between atoms: _483  and  _485
REMARK  201  A    between atoms: _485  and  _486
REMARK  202  A    between atoms: _485  and  _488
REMARK  203  A    between atoms: _491  and  _493
REMARK  204  A    between atoms: _493  and  _494
REMARK  205  A    between atoms: _493  and  _496
REMARK  206  A    between atoms: _496  and  _497
REMARK  207  A    between atoms: _502  and  _504
REMARK  208  A    between atoms: _504  and  _505
REMARK  209  A    between atoms: _504  and  _507
REMARK  210  A    between atoms: _507  and  _508
REMARK  211  A    between atoms: _511  and  _513
REMARK  212  A    between atoms: _513  and  _514
REMARK  213  A    between atoms: _513  and  _516
REMARK  214  A    between atoms: _516  and  _517
REMARK  215  A    between atoms: _520  and  _522
REMARK  216  A    between atoms: _522  and  _523
REMARK  217  A    between atoms: _525  and  _527
REMARK  218  A    between atoms: _527  and  _528
REMARK  219  A    between atoms: _527  and  _530
REMARK  220  A    between atoms: _530  and  _531
REMARK  221  A    between atoms: _531  and  _532
REMARK  222  A    between atoms: _532  and  _533
REMARK                            x       y       z     vdW  Elec       q    Type
REMARK                         _______ _______ _______ _____ _____    ______ ____
ROOT
ATOM      1  CA  LEU A   1      16.142  13.344  -4.460  0.00  0.00    +0.133 C 
ENDROOT
BRANCH   1   2
ATOM      2  N   LEU A   1      16.981  14.255  -5.235  0.00  0.00    -0.239 NA
ATOM      3  H   LEU A   1      16.988  15.266  -4.989  0.00  0.00    +0.142 HD
ENDBRANCH   1   2
BRANCH   1   4
ATOM      4  C   LEU A   1      14.706  13.607  -4.890  0.00  0.00    +0.224 C 
ATOM      5  O   LEU A   1      14.346  14.749  -5.157  0.00  0.00    -0.287 OA
ENDBRANCH   1   4
BRANCH   1   6
ATOM      6  CB  LEU A   1      16.285  13.608  -2.956  0.00  0.00    +0.025 C 
BRANCH   6   7
ATOM      7  CG  LEU A   1      17.695  13.688  -2.369  0.00  0.00    +0.002 C 
ATOM      8  CD2 LEU A   1      17.594  13.981  -0.883  0.00  0.00    +0.000 C 
ATOM      9  CD1 LEU A   1      18.462  12.411  -2.606  0.00  0.00    +0.000 C 
ENDBRANCH   6   7
ENDBRANCH   1   6
TORSDOF 4
REMARK  Name = ../refined-set-2016/2bpv/2bpv_pocket.pdb
REMARK  222 active torsions:
REMARK  status: ('A' for Active; 'I' for Inactive)
REMARK    1  A    between atoms: _1  and  _3
REMARK    2  A    between atoms: _3  and  _4
REMARK    3  A    between atoms: _3  and  _6
REMARK    4  A    between atoms: _6  and  _7
REMARK    5  A    between atoms: _7  and  _8
REMARK    6  A    between atoms: _8  and  _9
REMARK    7  A    between atoms: _18  and  _20
REMARK    8  A    between atoms: _20  and  _21
REMARK    9  A    between atoms: _20  and  _23
REMARK   10  A    between atoms: _23  and  _24
REMARK   11  A    between atoms: _27  and  _29
REMARK   12  A    between atoms: _29  and  _30
REMARK   13  A    between atoms: _29  and  _32
REMARK   14  A    between atoms: _32  and  _33
REMARK   15  A    between atoms: _36  and  _38
REMARK   16  A    between atoms: _38  and  _39
REMARK   17  A    between atoms: _38  and  _41
REMARK   18  A    between atoms: _41  and  _42
REMARK   19  A    between atoms: _45  and  _47
REMARK   20  A    between atoms: _47  and  _48
REMARK   21  A    between atoms: _47  and  _50
REMARK   22  A    between atoms: _50  and  _51
REMARK   23  A    between atoms: _54  and  _56
REMARK   24  A    between atoms: _56  and  _57
REMARK   25  A    between atoms: _56  and  _59
REMARK   26  A    between atoms: _59  and  _60
REMARK   27  A    between atoms: _63  and  _65
REMARK   28  A    between atoms: _65  and  _66
REMARK   29  A    between atoms: _68  and  _70
REMARK   30  A    between atoms: _70  and  _71
REMARK   31  A    between atoms: _74  and  _76
REMARK   32  A    between atoms: _76  and  _77
REMARK   33  A    between atoms: _76  and  _79
REMARK   34  A    between atoms: _79  and  _80
REMARK   35  A    between atoms: _83  and  _85
REMARK   36  A    between atoms: _85  and  _86
REMARK   37  A    between atoms: _85  and  _88
REMARK   38  A    between atoms: _88  and  _89
REMARK   39  A    between atoms: _92  and  _94
REMARK   40  A    between atoms: _94  and  _95
REMARK   41  A    between atoms: _94  and  _97
REMARK   42  A    between atoms: _97  and  _98
REMARK   43  A    between atoms: _101  and  _103
REMARK   44  A    between atoms: _103  and  _104
REMARK   45  A    between atoms: _103  and  _106
REMARK   46  A    between atoms: _109  and  _111
REMARK   47  A    between atoms: _111  and  _112
REMARK   48  A    between atoms: _111  and  _114
REMARK   49  A    between atoms: _114  and  _115
REMARK   50  A    between atoms: _115  and  _116
REMARK   51  A    between atoms: _118  and  _120
REMARK   52  A    between atoms: _120  and  _121
REMARK   53  A    between atoms: _120  and  _123
REMARK   54  A    between atoms: _123  and  _124
REMARK   55  A    between atoms: _127  and  _129
REMARK   56  A    between atoms: _129  and  _130
REMARK   57  A    between atoms: _132  and  _134
REMARK   58  A    between atoms: _134  and  _135
REMARK   59  A    between atoms: _137  and  _139
REMARK   60  A    between atoms: _139  and  _140
REMARK   61  A    between atoms: _139  and  _142
REMARK   62  A    between atoms: _142  and  _143
REMARK   63  A    between atoms: _146  and  _148
REMARK   64  A    between atoms: _148  and  _149
REMARK   65  A    between atoms: _151  and  _153
REMARK   66  A    between atoms: _153  and  _154
REMARK   67  A    between atoms: _156  and  _158
REMARK   68  A    between atoms: _158  and  _159
REMARK   69  A    between atoms: _158  and  _161
REMARK   70  A    between atoms: _161  and  _162
REMARK   71  A    between atoms: _168  and  _170
REMARK   72  A    between atoms: _170  and  _171
REMARK   73  A    between atoms: _170  and  _173
REMARK   74  A    between atoms: _173  and  _174
REMARK   75  A    between atoms: _177  and  _179
REMARK   76  A    between atoms: _179  and  _180
REMARK   77  A    between atoms: _179  and  _182
REMARK   78  A    between atoms: _185  and  _187
REMARK   79  A    between atoms: _187  and  _188
REMARK   80  A    between atoms: _187  and  _190
REMARK   81  A    between atoms: _190  and  _191
REMARK   82  A    between atoms: _194  and  _196
REMARK   83  A    between atoms: _196  and  _197
REMARK   84  A    between atoms: _196  and  _199
REMARK   85  A    between atoms: _199  and  _200
REMARK   86  A    between atoms: _204  and  _205
REMARK   87  A    between atoms: _210  and  _212
REMARK   88  A    between atoms: _212  and  _213
REMARK   89  A    between atoms: _212  and  _215
REMARK   90  A    between atoms: _218  and  _220
REMARK   91  A    between atoms: _220  and  _221
REMARK   92  A    between atoms: _220  and  _223
REMARK   93  A    between atoms: _223  and  _224
REMARK   94  A    between atoms: _229  and  _231
REMARK   95  A    between atoms: _231  and  _232
REMARK   96  A    between atoms: _231  and  _234
REMARK   97  A    between atoms: _234  and  _235
REMARK   98  A    between atoms: _238  and  _240
REMARK   99  A    between atoms: _240  and  _241
REMARK  100  A    between atoms: _240  and  _243
REMARK  101  A    between atoms: _243  and  _244
REMARK  102  A    between atoms: _247  and  _249
REMARK  103  A    between atoms: _249  and  _250
REMARK  104  A    between atoms: _252  and  _254
REMARK  105  A    between atoms: _254  and  _255
REMARK  106  A    between atoms: _254  and  _257
REMARK  107  A    between atoms: _257  and  _258
REMARK  108  A    between atoms: _258  and  _259
REMARK  109  A    between atoms: _259  and  _260
REMARK  110  A    between atoms: _269  and  _271
REMARK  111  A    between atoms: _271  and  _272
REMARK  112  A    between atoms: _271  and  _274
REMARK  113  A    between atoms: _274  and  _275
REMARK  114  A    between atoms: _275  and  _276
REMARK  115  A    between atoms: _276  and  _277
REMARK  116  A    between atoms: _286  and  _288
REMARK  117  A    between atoms: _288  and  _289
REMARK  118  A    between atoms: _288  and  _291
REMARK  119  A    between atoms: _291  and  _292
REMARK  120  A    between atoms: _295  and  _297
REMARK  121  A    between atoms: _297  and  _298
REMARK  122  A    between atoms: _297  and  _300
REMARK  123  A    between atoms: _300  and  _301
REMARK  124  A    between atoms: _304  and  _306
REMARK  125  A    between atoms: _306  and  _307
REMARK  126  A    between atoms: _306  and  _309
REMARK  127  A    between atoms: _309  and  _310
REMARK  128  A    between atoms: _313  and  _315
REMARK  129  A    between atoms: _315  and  _316
REMARK  130  A    between atoms: _315  and  _318
REMARK  131  A    between atoms: _318  and  _319
REMARK  132  A    between atoms: _322  and  _324
REMARK  133  A    between atoms: _324  and  _325
REMARK  134  A    between atoms: _324  and  _327
REMARK  135  A    between atoms: _327  and  _328
REMARK  136  A    between atoms: _331  and  _333
REMARK  137  A    between atoms: _333  and  _334
REMARK  138  A    between atoms: _336  and  _338
REMARK  139  A    between atoms: _338  and  _339
REMARK  140  A    between atoms: _342  and  _344
REMARK  141  A    between atoms: _344  and  _345
REMARK  142  A    between atoms: _344  and  _347
REMARK  143  A    between atoms: _347  and  _348
REMARK  144  A    between atoms: _351  and  _353
REMARK  145  A    between atoms: _353  and  _354
REMARK  146  A    between atoms: _353  and  _356
REMARK  147  A    between atoms: _356  and  _357
REMARK  148  A    between atoms: _360  and  _362
REMARK  149  A    between atoms: _362  and  _363
REMARK  150  A    between atoms: _362  and  _365
REMARK  151  A    between atoms: _365  and  _366
REMARK  152  A    between atoms: _369  and  _371
REMARK  153  A    between atoms: _371  and  _372
REMARK  154  A    between atoms: _371  and  _374
REMARK  155  A    between atoms: _377  and  _379
REMARK  156  A    between atoms: _379  and  _380
REMARK  157  A    between atoms: _379  and  _382
REMARK  158  A    between atoms: _382  and  _383
REMARK  159  A    between atoms: _383  and  _384
REMARK  160  A    between atoms: _384  and  _385
REMARK  161  A    between atoms: _385  and  _386
REMARK  162  A    between atoms: _390  and  _392
REMARK  163  A    between atoms: _392  and  _393
REMARK  164  A    between atoms: _392  and  _395
REMARK  165  A    between atoms: _395  and  _396
REMARK  166  A    between atoms: _396  and  _397
REMARK  167  A    between atoms: _399  and  _401
REMARK  168  A    between atoms: _401  and  _402
REMARK  169  A    between atoms: _401  and  _404
REMARK  170  A    between atoms: _404  and  _405
REMARK  171  A    between atoms: _408  and  _410
REMARK  172  A    between atoms: _410  and  _411
REMARK  173  A    between atoms: _413  and  _415
REMARK  174  A    between atoms: _415  and  _416
REMARK  175  A    between atoms: _418  and  _420
REMARK  176  A    between atoms: _420  and  _421
REMARK  177  A    between atoms: _420  and  _423
REMARK  178  A    between atoms: _423  and  _424
REMARK  179  A    between atoms: _427  and  _429
REMARK  180  A    between atoms: _429  and  _430
REMARK  181  A    between atoms: _432  and  _434
REMARK  182  A    between atoms: _434  and  _435
REMARK  183  A    between atoms: _437  and  _439
REMARK  184  A    between atoms: _439  and  _440
REMARK  185  A    between atoms: _439  and  _442
REMARK  186  A    between atoms: _442  and  _443
REMARK  187  A    between atoms: _449  and  _451
REMARK  188  A    between atoms: _451  and  _452
REMARK  189  A    between atoms: _451  and  _454
REMARK  190  A    between atoms: _454  and  _455
REMARK  191  A    between atoms: _458  and  _460
REMARK  192  A    between atoms: _460  and  _461
REMARK  193  A    between atoms: _460  and  _463
REMARK  194  A    between atoms: _463  and  _464
REMARK  195  A    between atoms: _467  and  _469
REMARK  196  A    between atoms: _469  and  _470
REMARK  197  A    between atoms: _469  and  _472
REMARK  198  A    between atoms: _472  and  _473
REMARK  199  A    between atoms: _477  and  _478
REMARK  200  A    between atoms: _483  and  _485
REMARK  201  A    between atoms: _485  and  _486
REMARK  202  A    between atoms: _485  and  _488
REMARK  203  A    between atoms: _491  and  _493
REMARK  204  A    between atoms: _493  and  _494
REMARK  205  A    between atoms: _493  and  _496
REMARK  206  A    between atoms: _496  and  _497
REMARK  207  A    between atoms: _502  and  _504
REMARK  208  A    between atoms: _504  and  _505
REMARK  209  A    between atoms: _504  and  _507
REMARK  210  A    between atoms: _507  and  _508
REMARK  211  A    between atoms: _511  and  _513
REMARK  212  A    between atoms: _513  and  _514
REMARK  213  A    between atoms: _513  and  _516
REMARK  214  A    between atoms: _516  and  _517
REMARK  215  A    between atoms: _520  and  _522
REMARK  216  A    between atoms: _522  and  _523
REMARK  217  A    between atoms: _525  and  _527
REMARK  218  A    between atoms: _527  and  _528
REMARK  219  A    between atoms: _527  and  _530
REMARK  220  A    between atoms: _530  and  _531
REMARK  221  A    between atoms: _531  and  _532
REMARK  222  A    between atoms: _532  and  _533
REMARK                            x       y       z     vdW  Elec       q    Type
REMARK                         _______ _______ _______ _____ _____    ______ ____
ROOT
ATOM      1  CA  ILE A   5      13.802  22.517  -3.479  0.00  0.00    +0.149 C 
ENDROOT
BRANCH   1   3
ATOM      2  C   ASN A   4      11.776  22.469  -4.856  0.00  0.00    +0.241 C 
ATOM      3  N   ILE A   5      12.785  21.834  -4.273  0.00  0.00    -0.297 N 
ATOM      4  H   ILE A   5      12.854  20.803  -4.387  0.00  0.00    +0.150 HD
ATOM      5  O   ASN A   4      11.630  23.690  -4.793  0.00  0.00    -0.273 OA
BRANCH   2   6
ATOM      6  CA  ASN A   4      10.757  21.603  -5.599  0.00  0.00    +0.158 C 
BRANCH   6   9
ATOM      7  C   VAL A   3       9.077  21.789  -3.863  0.00  0.00    +0.241 C 
ATOM      8  O   VAL A   3       9.765  21.112  -3.088  0.00  0.00    -0.273 OA
ATOM      9  N   ASN A   4       9.451  22.046  -5.113  0.00  0.00    -0.297 N 
ATOM     10  H   ASN A   4       8.811  22.565  -5.748  0.00  0.00    +0.150 HD
BRANCH   7  11
ATOM     11  CA  VAL A   3       7.726  22.354  -3.416  0.00  0.00    +0.149 C 
BRANCH  11  13
ATOM     12  C   PRO A   2       6.035  21.467  -1.839  0.00  0.00    +0.241 C 
ATOM     13  N   VAL A   3       7.307  21.660  -2.186  0.00  0.00    -0.297 N 
ATOM     14  H   VAL A   3       8.048  21.299  -1.551  0.00  0.00    +0.150 HD
ATOM     15  O   PRO A   2       5.079  21.841  -2.527  0.00  0.00    -0.273 OA
BRANCH  12  21
ATOM     16  C   THR A   1       6.938  18.606  -1.143  0.00  0.00    +0.244 C 
ATOM     17  N   PRO A   2       6.775  19.642  -0.291  0.00  0.00    -0.272 N 
ATOM     18  CD  PRO A   2       7.445  19.819   1.010  0.00  0.00    +0.094 C 
ATOM     19  CG  PRO A   2       6.478  20.711   1.741  0.00  0.00    +0.024 C 
ATOM     20  CB  PRO A   2       6.019  21.637   0.677  0.00  0.00    +0.031 C 
ATOM     21  CA  PRO A   2       5.800  20.720  -0.520  0.00  0.00    +0.152 C 
ATOM     22  O   THR A   1       6.255  18.489  -2.164  0.00  0.00    -0.273 OA
BRANCH  16  23
ATOM     23  CA  THR A   1       7.987  17.549  -0.790  0.00  0.00    +0.172 C 
BRANCH  23  24
ATOM     24  N   THR A   1       7.539  16.250  -1.256  0.00  0.00    -0.236 NA
ATOM     25  H   THR A   1       7.560  16.049  -2.276  0.00  0.00    +0.142 HD
ENDBRANCH  23  24
BRANCH  23  26
ATOM     26  CB  THR A   1       9.360  17.912  -1.413  0.00  0.00    +0.135 C 
ATOM     27  CG2 THR A   1       9.307  17.861  -2.932  0.00  0.00    +0.034 C 
BRANCH  26  28
ATOM     28  OG1 THR A   1       9.747  19.230  -1.006  0.00  0.00    -0.383 OA
ATOM     29  HG1 THR A   1       9.067  19.881  -1.311  0.00  0.00    +0.210 HD
ENDBRANCH  26  28
ENDBRANCH  23  26
ENDBRANCH  16  23
ENDBRANCH  12  21
ENDBRANCH  11  13
BRANCH  11  30
ATOM     30  CB  VAL A   3       7.942  23.874  -3.194  0.00  0.00    +0.027 C 
ATOM     31  CG2 VAL A   3       9.013  24.125  -2.140  0.00  0.00    +0.002 C 
ATOM     32  CG1 VAL A   3       6.648  24.567  -2.803  0.00  0.00    +0.002 C 
ENDBRANCH  11  30
ENDBRANCH   7  11
ENDBRANCH   6   9
BRANCH   6  33
ATOM     33  CB  ASN A   4      10.879  21.807  -7.112  0.00  0.00    +0.114 C 
BRANCH  33  34
ATOM     34  CG  ASN A   4       9.925  20.934  -7.894  0.00  0.00    +0.222 C 
ATOM     35  OD1 ASN A   4       9.863  19.733  -7.682  0.00  0.00    -0.275 OA
ATOM     36  ND2 ASN A   4       9.175  21.534  -8.802  0.00  0.00    -0.329 N 
ATOM     37 HD21 ASN A   4       9.259  22.560  -8.951  0.00  0.00    +0.145 HD
ATOM     38 HD22 ASN A   4       8.500  20.980  -9.368  0.00  0.00    +0.145 HD
ENDBRANCH  33  34
ENDBRANCH   6  33
ENDBRANCH   2   6
ENDBRANCH   1   3
BRANCH   1  39
ATOM     39  C   ILE A   5      15.202  22.353  -4.057  0.00  0.00    +0.241 C 
ATOM     40  N   ILE A   6      15.893  23.463  -4.289  0.00  0.00    -0.297 N 
ATOM     41  H   ILE A   6      15.447  24.385  -4.108  0.00  0.00    +0.150 HD
ATOM     42  O   ILE A   5      15.643  21.233  -4.305  0.00  0.00    -0.273 OA
BRANCH  40  43
ATOM     43  CA  ILE A   6      17.265  23.422  -4.792  0.00  0.00    +0.149 C 
BRANCH  43  44
ATOM     44  C   ILE A   6      18.139  23.658  -3.559  0.00  0.00    +0.241 C 
ATOM     45  O   ILE A   6      18.108  24.749  -2.978  0.00  0.00    -0.273 OA
ATOM     46  N   GLY A   7      18.890  22.636  -3.150  0.00  0.00    -0.295 N 
ATOM     47  H   GLY A   7      18.876  21.746  -3.688  0.00  0.00    +0.150 HD
BRANCH  46  48
ATOM     48  CA  GLY A   7      19.724  22.740  -1.972  0.00  0.00    +0.176 C 
BRANCH  48  49
ATOM     49  C   GLY A   7      21.161  23.117  -2.229  0.00  0.00    +0.243 C 
ATOM     50  N   ARG A   8      21.943  23.121  -1.163  0.00  0.00    -0.298 N 
ATOM     51  H   ARG A   8      21.542  22.848  -0.243  0.00  0.00    +0.150 HD
ATOM     52  O   GLY A   7      21.577  23.310  -3.367  0.00  0.00    -0.273 OA
BRANCH  50  53
ATOM     53  CA  ARG A   8      23.348  23.496  -1.236  0.00  0.00    +0.137 C 
BRANCH  53  54
ATOM     54  C   ARG A   8      24.198  22.729  -2.226  0.00  0.00    +0.227 C 
ATOM     55  O   ARG A   8      25.108  23.296  -2.830  0.00  0.00    -0.286 OA
ENDBRANCH  53  54
BRANCH  53  56
ATOM     56  CB  ARG A   8      23.983  23.471   0.145  0.00  0.00    +0.031 C 
BRANCH  56  57
ATOM     57  CG  ARG A   8      23.454  24.541   1.083  0.00  0.00    +0.045 C 
BRANCH  57  58
ATOM     58  CD  ARG A   8      24.294  24.651   2.344  0.00  0.00    +0.174 C 
BRANCH  58  59
ATOM     59  NE  ARG A   8      24.281  23.417   3.120  0.00  0.00    -0.265 N 
ATOM     60  HE  ARG A   8      23.437  23.214   3.692  0.00  0.00    +0.259 HD
ATOM     61  CZ  ARG A   8      25.273  22.533   3.147  0.00  0.00    +0.342 C 
ATOM     62  NH2 ARG A   8      25.169  21.435   3.880  0.00  0.00    -0.292 N 
ATOM     63 HH21 ARG A   8      24.308  21.262   4.438  0.00  0.00    +0.255 HD
ATOM     64 HH22 ARG A   8      25.948  20.746   3.898  0.00  0.00    +0.255 HD
ATOM     65  NH1 ARG A   8      26.384  22.751   2.461  0.00  0.00    -0.292 N 
ATOM     66 HH11 ARG A   8      27.156  22.055   2.487  0.00  0.00    +0.255 HD
ATOM     67 HH12 ARG A   8      26.485  23.618   1.896  0.00  0.00    +0.255 HD
ENDBRANCH  58  59
ENDBRANCH  57  58
ENDBRANCH  56  57
ENDBRANCH  53  56
ENDBRANCH  50  53
ENDBRANCH  48  49
ENDBRANCH  46  48
ENDBRANCH  43  44
BRANCH  43  68
ATOM     68  CB  ILE A   6      17.553  24.525  -5.823  0.00  0.00    +0.027 C 
ATOM     69  CG2 ILE A   6      18.969  24.390  -6.364  0.00  0.00    +0.002 C 
BRANCH  68  70
ATOM     70  CG1 ILE A   6      16.540  24.454  -6.975  0.00  0.00    +0.002 C 
ATOM     71  CD1 ILE A   6      16.549  23.137  -7.757  0.00  0.00    +0.000 C 
ENDBRANCH  68  70
ENDBRANCH  43  68
ENDBRANCH  40  43
ENDBRANCH   1  39
BRANCH   1  72
ATOM     72  CB  ILE A   5      13.806  21.950  -2.046  0.00  0.00    +0.027 C 
ATOM     73  CG2 ILE A   5      15.005  22.461  -1.244  0.00  0.00    +0.002 C 
BRANCH  72  74
ATOM     74  CG1 ILE A   5      12.485  22.288  -1.362  0.00  0.00    +0.002 C 
ATOM     75  CD1 ILE A   5      12.247  21.502  -0.094  0.00  0.00    +0.000 C 
ENDBRANCH  72  74
ENDBRANCH   1  72
TORSDOF 28
REMARK  Name = ../refined-set-2016/2bpv/2bpv_pocket.pdb
REMARK  222 active torsions:
REMARK  status: ('A' for Active; 'I' for Inactive)
REMARK    1  A    between atoms: _1  and  _3
REMARK    2  A    between atoms: _3  and  _4
REMARK    3  A    between atoms: _3  and  _6
REMARK    4  A    between atoms: _6  and  _7
REMARK    5  A    between atoms: _7  and  _8
REMARK    6  A    between atoms: _8  and  _9
REMARK    7  A    between atoms: _18  and  _20
REMARK    8  A    between atoms: _20  and  _21
REMARK    9  A    between atoms: _20  and  _23
REMARK   10  A    between atoms: _23  and  _24
REMARK   11  A    between atoms: _27  and  _29
REMARK   12  A    between atoms: _29  and  _30
REMARK   13  A    between atoms: _29  and  _32
REMARK   14  A    between atoms: _32  and  _33
REMARK   15  A    between atoms: _36  and  _38
REMARK   16  A    between atoms: _38  and  _39
REMARK   17  A    between atoms: _38  and  _41
REMARK   18  A    between atoms: _41  and  _42
REMARK   19  A    between atoms: _45  and  _47
REMARK   20  A    between atoms: _47  and  _48
REMARK   21  A    between atoms: _47  and  _50
REMARK   22  A    between atoms: _50  and  _51
REMARK   23  A    between atoms: _54  and  _56
REMARK   24  A    between atoms: _56  and  _57
REMARK   25  A    between atoms: _56  and  _59
REMARK   26  A    between atoms: _59  and  _60
REMARK   27  A    between atoms: _63  and  _65
REMARK   28  A    between atoms: _65  and  _66
REMARK   29  A    between atoms: _68  and  _70
REMARK   30  A    between atoms: _70  and  _71
REMARK   31  A    between atoms: _74  and  _76
REMARK   32  A    between atoms: _76  and  _77
REMARK   33  A    between atoms: _76  and  _79
REMARK   34  A    between atoms: _79  and  _80
REMARK   35  A    between atoms: _83  and  _85
REMARK   36  A    between atoms: _85  and  _86
REMARK   37  A    between atoms: _85  and  _88
REMARK   38  A    between atoms: _88  and  _89
REMARK   39  A    between atoms: _92  and  _94
REMARK   40  A    between atoms: _94  and  _95
REMARK   41  A    between atoms: _94  and  _97
REMARK   42  A    between atoms: _97  and  _98
REMARK   43  A    between atoms: _101  and  _103
REMARK   44  A    between atoms: _103  and  _104
REMARK   45  A    between atoms: _103  and  _106
REMARK   46  A    between atoms: _109  and  _111
REMARK   47  A    between atoms: _111  and  _112
REMARK   48  A    between atoms: _111  and  _114
REMARK   49  A    between atoms: _114  and  _115
REMARK   50  A    between atoms: _115  and  _116
REMARK   51  A    between atoms: _118  and  _120
REMARK   52  A    between atoms: _120  and  _121
REMARK   53  A    between atoms: _120  and  _123
REMARK   54  A    between atoms: _123  and  _124
REMARK   55  A    between atoms: _127  and  _129
REMARK   56  A    between atoms: _129  and  _130
REMARK   57  A    between atoms: _132  and  _134
REMARK   58  A    between atoms: _134  and  _135
REMARK   59  A    between atoms: _137  and  _139
REMARK   60  A    between atoms: _139  and  _140
REMARK   61  A    between atoms: _139  and  _142
REMARK   62  A    between atoms: _142  and  _143
REMARK   63  A    between atoms: _146  and  _148
REMARK   64  A    between atoms: _148  and  _149
REMARK   65  A    between atoms: _151  and  _153
REMARK   66  A    between atoms: _153  and  _154
REMARK   67  A    between atoms: _156  and  _158
REMARK   68  A    between atoms: _158  and  _159
REMARK   69  A    between atoms: _158  and  _161
REMARK   70  A    between atoms: _161  and  _162
REMARK   71  A    between atoms: _168  and  _170
REMARK   72  A    between atoms: _170  and  _171
REMARK   73  A    between atoms: _170  and  _173
REMARK   74  A    between atoms: _173  and  _174
REMARK   75  A    between atoms: _177  and  _179
REMARK   76  A    between atoms: _179  and  _180
REMARK   77  A    between atoms: _179  and  _182
REMARK   78  A    between atoms: _185  and  _187
REMARK   79  A    between atoms: _187  and  _188
REMARK   80  A    between atoms: _187  and  _190
REMARK   81  A    between atoms: _190  and  _191
REMARK   82  A    between atoms: _194  and  _196
REMARK   83  A    between atoms: _196  and  _197
REMARK   84  A    between atoms: _196  and  _199
REMARK   85  A    between atoms: _199  and  _200
REMARK   86  A    between atoms: _204  and  _205
REMARK   87  A    between atoms: _210  and  _212
REMARK   88  A    between atoms: _212  and  _213
REMARK   89  A    between atoms: _212  and  _215
REMARK   90  A    between atoms: _218  and  _220
REMARK   91  A    between atoms: _220  and  _221
REMARK   92  A    between atoms: _220  and  _223
REMARK   93  A    between atoms: _223  and  _224
REMARK   94  A    between atoms: _229  and  _231
REMARK   95  A    between atoms: _231  and  _232
REMARK   96  A    between atoms: _231  and  _234
REMARK   97  A    between atoms: _234  and  _235
REMARK   98  A    between atoms: _238  and  _240
REMARK   99  A    between atoms: _240  and  _241
REMARK  100  A    between atoms: _240  and  _243
REMARK  101  A    between atoms: _243  and  _244
REMARK  102  A    between atoms: _247  and  _249
REMARK  103  A    between atoms: _249  and  _250
REMARK  104  A    between atoms: _252  and  _254
REMARK  105  A    between atoms: _254  and  _255
REMARK  106  A    between atoms: _254  and  _257
REMARK  107  A    between atoms: _257  and  _258
REMARK  108  A    between atoms: _258  and  _259
REMARK  109  A    between atoms: _259  and  _260
REMARK  110  A    between atoms: _269  and  _271
REMARK  111  A    between atoms: _271  and  _272
REMARK  112  A    between atoms: _271  and  _274
REMARK  113  A    between atoms: _274  and  _275
REMARK  114  A    between atoms: _275  and  _276
REMARK  115  A    between atoms: _276  and  _277
REMARK  116  A    between atoms: _286  and  _288
REMARK  117  A    between atoms: _288  and  _289
REMARK  118  A    between atoms: _288  and  _291
REMARK  119  A    between atoms: _291  and  _292
REMARK  120  A    between atoms: _295  and  _297
REMARK  121  A    between atoms: _297  and  _298
REMARK  122  A    between atoms: _297  and  _300
REMARK  123  A    between atoms: _300  and  _301
REMARK  124  A    between atoms: _304  and  _306
REMARK  125  A    between atoms: _306  and  _307
REMARK  126  A    between atoms: _306  and  _309
REMARK  127  A    between atoms: _309  and  _310
REMARK  128  A    between atoms: _313  and  _315
REMARK  129  A    between atoms: _315  and  _316
REMARK  130  A    between atoms: _315  and  _318
REMARK  131  A    between atoms: _318  and  _319
REMARK  132  A    between atoms: _322  and  _324
REMARK  133  A    between atoms: _324  and  _325
REMARK  134  A    between atoms: _324  and  _327
REMARK  135  A    between atoms: _327  and  _328
REMARK  136  A    between atoms: _331  and  _333
REMARK  137  A    between atoms: _333  and  _334
REMARK  138  A    between atoms: _336  and  _338
REMARK  139  A    between atoms: _338  and  _339
REMARK  140  A    between atoms: _342  and  _344
REMARK  141  A    between atoms: _344  and  _345
REMARK  142  A    between atoms: _344  and  _347
REMARK  143  A    between atoms: _347  and  _348
REMARK  144  A    between atoms: _351  and  _353
REMARK  145  A    between atoms: _353  and  _354
REMARK  146  A    between atoms: _353  and  _356
REMARK  147  A    between atoms: _356  and  _357
REMARK  148  A    between atoms: _360  and  _362
REMARK  149  A    between atoms: _362  and  _363
REMARK  150  A    between atoms: _362  and  _365
REMARK  151  A    between atoms: _365  and  _366
REMARK  152  A    between atoms: _369  and  _371
REMARK  153  A    between atoms: _371  and  _372
REMARK  154  A    between atoms: _371  and  _374
REMARK  155  A    between atoms: _377  and  _379
REMARK  156  A    between atoms: _379  and  _380
REMARK  157  A    between atoms: _379  and  _382
REMARK  158  A    between atoms: _382  and  _383
REMARK  159  A    between atoms: _383  and  _384
REMARK  160  A    between atoms: _384  and  _385
REMARK  161  A    between atoms: _385  and  _386
REMARK  162  A    between atoms: _390  and  _392
REMARK  163  A    between atoms: _392  and  _393
REMARK  164  A    between atoms: _392  and  _395
REMARK  165  A    between atoms: _395  and  _396
REMARK  166  A    between atoms: _396  and  _397
REMARK  167  A    between atoms: _399  and  _401
REMARK  168  A    between atoms: _401  and  _402
REMARK  169  A    between atoms: _401  and  _404
REMARK  170  A    between atoms: _404  and  _405
REMARK  171  A    between atoms: _408  and  _410
REMARK  172  A    between atoms: _410  and  _411
REMARK  173  A    between atoms: _413  and  _415
REMARK  174  A    between atoms: _415  and  _416
REMARK  175  A    between atoms: _418  and  _420
REMARK  176  A    between atoms: _420  and  _421
REMARK  177  A    between atoms: _420  and  _423
REMARK  178  A    between atoms: _423  and  _424
REMARK  179  A    between atoms: _427  and  _429
REMARK  180  A    between atoms: _429  and  _430
REMARK  181  A    between atoms: _432  and  _434
REMARK  182  A    between atoms: _434  and  _435
REMARK  183  A    between atoms: _437  and  _439
REMARK  184  A    between atoms: _439  and  _440
REMARK  185  A    between atoms: _439  and  _442
REMARK  186  A    between atoms: _442  and  _443
REMARK  187  A    between atoms: _449  and  _451
REMARK  188  A    between atoms: _451  and  _452
REMARK  189  A    between atoms: _451  and  _454
REMARK  190  A    between atoms: _454  and  _455
REMARK  191  A    between atoms: _458  and  _460
REMARK  192  A    between atoms: _460  and  _461
REMARK  193  A    between atoms: _460  and  _463
REMARK  194  A    between atoms: _463  and  _464
REMARK  195  A    between atoms: _467  and  _469
REMARK  196  A    between atoms: _469  and  _470
REMARK  197  A    between atoms: _469  and  _472
REMARK  198  A    between atoms: _472  and  _473
REMARK  199  A    between atoms: _477  and  _478
REMARK  200  A    between atoms: _483  and  _485
REMARK  201  A    between atoms: _485  and  _486
REMARK  202  A    between atoms: _485  and  _488
REMARK  203  A    between atoms: _491  and  _493
REMARK  204  A    between atoms: _493  and  _494
REMARK  205  A    between atoms: _493  and  _496
REMARK  206  A    between atoms: _496  and  _497
REMARK  207  A    between atoms: _502  and  _504
REMARK  208  A    between atoms: _504  and  _505
REMARK  209  A    between atoms: _504  and  _507
REMARK  210  A    between atoms: _507  and  _508
REMARK  211  A    between atoms: _511  and  _513
REMARK  212  A    between atoms: _513  and  _514
REMARK  213  A    between atoms: _513  and  _516
REMARK  214  A    between atoms: _516  and  _517
REMARK  215  A    between atoms: _520  and  _522
REMARK  216  A    between atoms: _522  and  _523
REMARK  217  A    between atoms: _525  and  _527
REMARK  218  A    between atoms: _527  and  _528
REMARK  219  A    between atoms: _527  and  _530
REMARK  220  A    between atoms: _530  and  _531
REMARK  221  A    between atoms: _531  and  _532
REMARK  222  A    between atoms: _532  and  _533
REMARK                            x       y       z     vdW  Elec       q    Type
REMARK                         _______ _______ _______ _____ _____    ______ ____
ROOT
ATOM      1  O   HOH     1      11.024  31.010   1.349  0.00  0.00    +0.000 OA
ENDROOT
TORSDOF 0
REMARK  Name = ../refined-set-2016/2bpv/2bpv_pocket.pdb
REMARK  222 active torsions:
REMARK  status: ('A' for Active; 'I' for Inactive)
REMARK    1  A    between atoms: _1  and  _3
REMARK    2  A    between atoms: _3  and  _4
REMARK    3  A    between atoms: _3  and  _6
REMARK    4  A    between atoms: _6  and  _7
REMARK    5  A    between atoms: _7  and  _8
REMARK    6  A    between atoms: _8  and  _9
REMARK    7  A    between atoms: _18  and  _20
REMARK    8  A    between atoms: _20  and  _21
REMARK    9  A    between atoms: _20  and  _23
REMARK   10  A    between atoms: _23  and  _24
REMARK   11  A    between atoms: _27  and  _29
REMARK   12  A    between atoms: _29  and  _30
REMARK   13  A    between atoms: _29  and  _32
REMARK   14  A    between atoms: _32  and  _33
REMARK   15  A    between atoms: _36  and  _38
REMARK   16  A    between atoms: _38  and  _39
REMARK   17  A    between atoms: _38  and  _41
REMARK   18  A    between atoms: _41  and  _42
REMARK   19  A    between atoms: _45  and  _47
REMARK   20  A    between atoms: _47  and  _48
REMARK   21  A    between atoms: _47  and  _50
REMARK   22  A    between atoms: _50  and  _51
REMARK   23  A    between atoms: _54  and  _56
REMARK   24  A    between atoms: _56  and  _57
REMARK   25  A    between atoms: _56  and  _59
REMARK   26  A    between atoms: _59  and  _60
REMARK   27  A    between atoms: _63  and  _65
REMARK   28  A    between atoms: _65  and  _66
REMARK   29  A    between atoms: _68  and  _70
REMARK   30  A    between atoms: _70  and  _71
REMARK   31  A    between atoms: _74  and  _76
REMARK   32  A    between atoms: _76  and  _77
REMARK   33  A    between atoms: _76  and  _79
REMARK   34  A    between atoms: _79  and  _80
REMARK   35  A    between atoms: _83  and  _85
REMARK   36  A    between atoms: _85  and  _86
REMARK   37  A    between atoms: _85  and  _88
REMARK   38  A    between atoms: _88  and  _89
REMARK   39  A    between atoms: _92  and  _94
REMARK   40  A    between atoms: _94  and  _95
REMARK   41  A    between atoms: _94  and  _97
REMARK   42  A    between atoms: _97  and  _98
REMARK   43  A    between atoms: _101  and  _103
REMARK   44  A    between atoms: _103  and  _104
REMARK   45  A    between atoms: _103  and  _106
REMARK   46  A    between atoms: _109  and  _111
REMARK   47  A    between atoms: _111  and  _112
REMARK   48  A    between atoms: _111  and  _114
REMARK   49  A    between atoms: _114  and  _115
REMARK   50  A    between atoms: _115  and  _116
REMARK   51  A    between atoms: _118  and  _120
REMARK   52  A    between atoms: _120  and  _121
REMARK   53  A    between atoms: _120  and  _123
REMARK   54  A    between atoms: _123  and  _124
REMARK   55  A    between atoms: _127  and  _129
REMARK   56  A    between atoms: _129  and  _130
REMARK   57  A    between atoms: _132  and  _134
REMARK   58  A    between atoms: _134  and  _135
REMARK   59  A    between atoms: _137  and  _139
REMARK   60  A    between atoms: _139  and  _140
REMARK   61  A    between atoms: _139  and  _142
REMARK   62  A    between atoms: _142  and  _143
REMARK   63  A    between atoms: _146  and  _148
REMARK   64  A    between atoms: _148  and  _149
REMARK   65  A    between atoms: _151  and  _153
REMARK   66  A    between atoms: _153  and  _154
REMARK   67  A    between atoms: _156  and  _158
REMARK   68  A    between atoms: _158  and  _159
REMARK   69  A    between atoms: _158  and  _161
REMARK   70  A    between atoms: _161  and  _162
REMARK   71  A    between atoms: _168  and  _170
REMARK   72  A    between atoms: _170  and  _171
REMARK   73  A    between atoms: _170  and  _173
REMARK   74  A    between atoms: _173  and  _174
REMARK   75  A    between atoms: _177  and  _179
REMARK   76  A    between atoms: _179  and  _180
REMARK   77  A    between atoms: _179  and  _182
REMARK   78  A    between atoms: _185  and  _187
REMARK   79  A    between atoms: _187  and  _188
REMARK   80  A    between atoms: _187  and  _190
REMARK   81  A    between atoms: _190  and  _191
REMARK   82  A    between atoms: _194  and  _196
REMARK   83  A    between atoms: _196  and  _197
REMARK   84  A    between atoms: _196  and  _199
REMARK   85  A    between atoms: _199  and  _200
REMARK   86  A    between atoms: _204  and  _205
REMARK   87  A    between atoms: _210  and  _212
REMARK   88  A    between atoms: _212  and  _213
REMARK   89  A    between atoms: _212  and  _215
REMARK   90  A    between atoms: _218  and  _220
REMARK   91  A    between atoms: _220  and  _221
REMARK   92  A    between atoms: _220  and  _223
REMARK   93  A    between atoms: _223  and  _224
REMARK   94  A    between atoms: _229  and  _231
REMARK   95  A    between atoms: _231  and  _232
REMARK   96  A    between atoms: _231  and  _234
REMARK   97  A    between atoms: _234  and  _235
REMARK   98  A    between atoms: _238  and  _240
REMARK   99  A    between atoms: _240  and  _241
REMARK  100  A    between atoms: _240  and  _243
REMARK  101  A    between atoms: _243  and  _244
REMARK  102  A    between atoms: _247  and  _249
REMARK  103  A    between atoms: _249  and  _250
REMARK  104  A    between atoms: _252  and  _254
REMARK  105  A    between atoms: _254  and  _255
REMARK  106  A    between atoms: _254  and  _257
REMARK  107  A    between atoms: _257  and  _258
REMARK  108  A    between atoms: _258  and  _259
REMARK  109  A    between atoms: _259  and  _260
REMARK  110  A    between atoms: _269  and  _271
REMARK  111  A    between atoms: _271  and  _272
REMARK  112  A    between atoms: _271  and  _274
REMARK  113  A    between atoms: _274  and  _275
REMARK  114  A    between atoms: _275  and  _276
REMARK  115  A    between atoms: _276  and  _277
REMARK  116  A    between atoms: _286  and  _288
REMARK  117  A    between atoms: _288  and  _289
REMARK  118  A    between atoms: _288  and  _291
REMARK  119  A    between atoms: _291  and  _292
REMARK  120  A    between atoms: _295  and  _297
REMARK  121  A    between atoms: _297  and  _298
REMARK  122  A    between atoms: _297  and  _300
REMARK  123  A    between atoms: _300  and  _301
REMARK  124  A    between atoms: _304  and  _306
REMARK  125  A    between atoms: _306  and  _307
REMARK  126  A    between atoms: _306  and  _309
REMARK  127  A    between atoms: _309  and  _310
REMARK  128  A    between atoms: _313  and  _315
REMARK  129  A    between atoms: _315  and  _316
REMARK  130  A    between atoms: _315  and  _318
REMARK  131  A    between atoms: _318  and  _319
REMARK  132  A    between atoms: _322  and  _324
REMARK  133  A    between atoms: _324  and  _325
REMARK  134  A    between atoms: _324  and  _327
REMARK  135  A    between atoms: _327  and  _328
REMARK  136  A    between atoms: _331  and  _333
REMARK  137  A    between atoms: _333  and  _334
REMARK  138  A    between atoms: _336  and  _338
REMARK  139  A    between atoms: _338  and  _339
REMARK  140  A    between atoms: _342  and  _344
REMARK  141  A    between atoms: _344  and  _345
REMARK  142  A    between atoms: _344  and  _347
REMARK  143  A    between atoms: _347  and  _348
REMARK  144  A    between atoms: _351  and  _353
REMARK  145  A    between atoms: _353  and  _354
REMARK  146  A    between atoms: _353  and  _356
REMARK  147  A    between atoms: _356  and  _357
REMARK  148  A    between atoms: _360  and  _362
REMARK  149  A    between atoms: _362  and  _363
REMARK  150  A    between atoms: _362  and  _365
REMARK  151  A    between atoms: _365  and  _366
REMARK  152  A    between atoms: _369  and  _371
REMARK  153  A    between atoms: _371  and  _372
REMARK  154  A    between atoms: _371  and  _374
REMARK  155  A    between atoms: _377  and  _379
REMARK  156  A    between atoms: _379  and  _380
REMARK  157  A    between atoms: _379  and  _382
REMARK  158  A    between atoms: _382  and  _383
REMARK  159  A    between atoms: _383  and  _384
REMARK  160  A    between atoms: _384  and  _385
REMARK  161  A    between atoms: _385  and  _386
REMARK  162  A    between atoms: _390  and  _392
REMARK  163  A    between atoms: _392  and  _393
REMARK  164  A    between atoms: _392  and  _395
REMARK  165  A    between atoms: _395  and  _396
REMARK  166  A    between atoms: _396  and  _397
REMARK  167  A    between atoms: _399  and  _401
REMARK  168  A    between atoms: _401  and  _402
REMARK  169  A    between atoms: _401  and  _404
REMARK  170  A    between atoms: _404  and  _405
REMARK  171  A    between atoms: _408  and  _410
REMARK  172  A    between atoms: _410  and  _411
REMARK  173  A    between atoms: _413  and  _415
REMARK  174  A    between atoms: _415  and  _416
REMARK  175  A    between atoms: _418  and  _420
REMARK  176  A    between atoms: _420  and  _421
REMARK  177  A    between atoms: _420  and  _423
REMARK  178  A    between atoms: _423  and  _424
REMARK  179  A    between atoms: _427  and  _429
REMARK  180  A    between atoms: _429  and  _430
REMARK  181  A    between atoms: _432  and  _434
REMARK  182  A    between atoms: _434  and  _435
REMARK  183  A    between atoms: _437  and  _439
REMARK  184  A    between atoms: _439  and  _440
REMARK  185  A    between atoms: _439  and  _442
REMARK  186  A    between atoms: _442  and  _443
REMARK  187  A    between atoms: _449  and  _451
REMARK  188  A    between atoms: _451  and  _452
REMARK  189  A    between atoms: _451  and  _454
REMARK  190  A    between atoms: _454  and  _455
REMARK  191  A    between atoms: _458  and  _460
REMARK  192  A    between atoms: _460  and  _461
REMARK  193  A    between atoms: _460  and  _463
REMARK  194  A    between atoms: _463  and  _464
REMARK  195  A    between atoms: _467  and  _469
REMARK  196  A    between atoms: _469  and  _470
REMARK  197  A    between atoms: _469  and  _472
REMARK  198  A    between atoms: _472  and  _473
REMARK  199  A    between atoms: _477  and  _478
REMARK  200  A    between atoms: _483  and  _485
REMARK  201  A    between atoms: _485  and  _486
REMARK  202  A    between atoms: _485  and  _488
REMARK  203  A    between atoms: _491  and  _493
REMARK  204  A    between atoms: _493  and  _494
REMARK  205  A    between atoms: _493  and  _496
REMARK  206  A    between atoms: _496  and  _497
REMARK  207  A    between atoms: _502  and  _504
REMARK  208  A    between atoms: _504  and  _505
REMARK  209  A    between atoms: _504  and  _507
REMARK  210  A    between atoms: _507  and  _508
REMARK  211  A    between atoms: _511  and  _513
REMARK  212  A    between atoms: _513  and  _514
REMARK  213  A    between atoms: _513  and  _516
REMARK  214  A    between atoms: _516  and  _517
REMARK  215  A    between atoms: _520  and  _522
REMARK  216  A    between atoms: _522  and  _523
REMARK  217  A    between atoms: _525  and  _527
REMARK  218  A    between atoms: _527  and  _528
REMARK  219  A    between atoms: _527  and  _530
REMARK  220  A    between atoms: _530  and  _531
REMARK  221  A    between atoms: _531  and  _532
REMARK  222  A    between atoms: _532  and  _533
REMARK                            x       y       z     vdW  Elec       q    Type
REMARK                         _______ _______ _______ _____ _____    ______ ____
ROOT
ATOM      1  O   HOH     1       8.595  28.236   4.869  0.00  0.00    +0.000 OA
ENDROOT
TORSDOF 0
REMARK  Name = ../refined-set-2016/2bpv/2bpv_pocket.pdb
REMARK  222 active torsions:
REMARK  status: ('A' for Active; 'I' for Inactive)
REMARK    1  A    between atoms: _1  and  _3
REMARK    2  A    between atoms: _3  and  _4
REMARK    3  A    between atoms: _3  and  _6
REMARK    4  A    between atoms: _6  and  _7
REMARK    5  A    between atoms: _7  and  _8
REMARK    6  A    between atoms: _8  and  _9
REMARK    7  A    between atoms: _18  and  _20
REMARK    8  A    between atoms: _20  and  _21
REMARK    9  A    between atoms: _20  and  _23
REMARK   10  A    between atoms: _23  and  _24
REMARK   11  A    between atoms: _27  and  _29
REMARK   12  A    between atoms: _29  and  _30
REMARK   13  A    between atoms: _29  and  _32
REMARK   14  A    between atoms: _32  and  _33
REMARK   15  A    between atoms: _36  and  _38
REMARK   16  A    between atoms: _38  and  _39
REMARK   17  A    between atoms: _38  and  _41
REMARK   18  A    between atoms: _41  and  _42
REMARK   19  A    between atoms: _45  and  _47
REMARK   20  A    between atoms: _47  and  _48
REMARK   21  A    between atoms: _47  and  _50
REMARK   22  A    between atoms: _50  and  _51
REMARK   23  A    between atoms: _54  and  _56
REMARK   24  A    between atoms: _56  and  _57
REMARK   25  A    between atoms: _56  and  _59
REMARK   26  A    between atoms: _59  and  _60
REMARK   27  A    between atoms: _63  and  _65
REMARK   28  A    between atoms: _65  and  _66
REMARK   29  A    between atoms: _68  and  _70
REMARK   30  A    between atoms: _70  and  _71
REMARK   31  A    between atoms: _74  and  _76
REMARK   32  A    between atoms: _76  and  _77
REMARK   33  A    between atoms: _76  and  _79
REMARK   34  A    between atoms: _79  and  _80
REMARK   35  A    between atoms: _83  and  _85
REMARK   36  A    between atoms: _85  and  _86
REMARK   37  A    between atoms: _85  and  _88
REMARK   38  A    between atoms: _88  and  _89
REMARK   39  A    between atoms: _92  and  _94
REMARK   40  A    between atoms: _94  and  _95
REMARK   41  A    between atoms: _94  and  _97
REMARK   42  A    between atoms: _97  and  _98
REMARK   43  A    between atoms: _101  and  _103
REMARK   44  A    between atoms: _103  and  _104
REMARK   45  A    between atoms: _103  and  _106
REMARK   46  A    between atoms: _109  and  _111
REMARK   47  A    between atoms: _111  and  _112
REMARK   48  A    between atoms: _111  and  _114
REMARK   49  A    between atoms: _114  and  _115
REMARK   50  A    between atoms: _115  and  _116
REMARK   51  A    between atoms: _118  and  _120
REMARK   52  A    between atoms: _120  and  _121
REMARK   53  A    between atoms: _120  and  _123
REMARK   54  A    between atoms: _123  and  _124
REMARK   55  A    between atoms: _127  and  _129
REMARK   56  A    between atoms: _129  and  _130
REMARK   57  A    between atoms: _132  and  _134
REMARK   58  A    between atoms: _134  and  _135
REMARK   59  A    between atoms: _137  and  _139
REMARK   60  A    between atoms: _139  and  _140
REMARK   61  A    between atoms: _139  and  _142
REMARK   62  A    between atoms: _142  and  _143
REMARK   63  A    between atoms: _146  and  _148
REMARK   64  A    between atoms: _148  and  _149
REMARK   65  A    between atoms: _151  and  _153
REMARK   66  A    between atoms: _153  and  _154
REMARK   67  A    between atoms: _156  and  _158
REMARK   68  A    between atoms: _158  and  _159
REMARK   69  A    between atoms: _158  and  _161
REMARK   70  A    between atoms: _161  and  _162
REMARK   71  A    between atoms: _168  and  _170
REMARK   72  A    between atoms: _170  and  _171
REMARK   73  A    between atoms: _170  and  _173
REMARK   74  A    between atoms: _173  and  _174
REMARK   75  A    between atoms: _177  and  _179
REMARK   76  A    between atoms: _179  and  _180
REMARK   77  A    between atoms: _179  and  _182
REMARK   78  A    between atoms: _185  and  _187
REMARK   79  A    between atoms: _187  and  _188
REMARK   80  A    between atoms: _187  and  _190
REMARK   81  A    between atoms: _190  and  _191
REMARK   82  A    between atoms: _194  and  _196
REMARK   83  A    between atoms: _196  and  _197
REMARK   84  A    between atoms: _196  and  _199
REMARK   85  A    between atoms: _199  and  _200
REMARK   86  A    between atoms: _204  and  _205
REMARK   87  A    between atoms: _210  and  _212
REMARK   88  A    between atoms: _212  and  _213
REMARK   89  A    between atoms: _212  and  _215
REMARK   90  A    between atoms: _218  and  _220
REMARK   91  A    between atoms: _220  and  _221
REMARK   92  A    between atoms: _220  and  _223
REMARK   93  A    between atoms: _223  and  _224
REMARK   94  A    between atoms: _229  and  _231
REMARK   95  A    between atoms: _231  and  _232
REMARK   96  A    between atoms: _231  and  _234
REMARK   97  A    between atoms: _234  and  _235
REMARK   98  A    between atoms: _238  and  _240
REMARK   99  A    between atoms: _240  and  _241
REMARK  100  A    between atoms: _240  and  _243
REMARK  101  A    between atoms: _243  and  _244
REMARK  102  A    between atoms: _247  and  _249
REMARK  103  A    between atoms: _249  and  _250
REMARK  104  A    between atoms: _252  and  _254
REMARK  105  A    between atoms: _254  and  _255
REMARK  106  A    between atoms: _254  and  _257
REMARK  107  A    between atoms: _257  and  _258
REMARK  108  A    between atoms: _258  and  _259
REMARK  109  A    between atoms: _259  and  _260
REMARK  110  A    between atoms: _269  and  _271
REMARK  111  A    between atoms: _271  and  _272
REMARK  112  A    between atoms: _271  and  _274
REMARK  113  A    between atoms: _274  and  _275
REMARK  114  A    between atoms: _275  and  _276
REMARK  115  A    between atoms: _276  and  _277
REMARK  116  A    between atoms: _286  and  _288
REMARK  117  A    between atoms: _288  and  _289
REMARK  118  A    between atoms: _288  and  _291
REMARK  119  A    between atoms: _291  and  _292
REMARK  120  A    between atoms: _295  and  _297
REMARK  121  A    between atoms: _297  and  _298
REMARK  122  A    between atoms: _297  and  _300
REMARK  123  A    between atoms: _300  and  _301
REMARK  124  A    between atoms: _304  and  _306
REMARK  125  A    between atoms: _306  and  _307
REMARK  126  A    between atoms: _306  and  _309
REMARK  127  A    between atoms: _309  and  _310
REMARK  128  A    between atoms: _313  and  _315
REMARK  129  A    between atoms: _315  and  _316
REMARK  130  A    between atoms: _315  and  _318
REMARK  131  A    between atoms: _318  and  _319
REMARK  132  A    between atoms: _322  and  _324
REMARK  133  A    between atoms: _324  and  _325
REMARK  134  A    between atoms: _324  and  _327
REMARK  135  A    between atoms: _327  and  _328
REMARK  136  A    between atoms: _331  and  _333
REMARK  137  A    between atoms: _333  and  _334
REMARK  138  A    between atoms: _336  and  _338
REMARK  139  A    between atoms: _338  and  _339
REMARK  140  A    between atoms: _342  and  _344
REMARK  141  A    between atoms: _344  and  _345
REMARK  142  A    between atoms: _344  and  _347
REMARK  143  A    between atoms: _347  and  _348
REMARK  144  A    between atoms: _351  and  _353
REMARK  145  A    between atoms: _353  and  _354
REMARK  146  A    between atoms: _353  and  _356
REMARK  147  A    between atoms: _356  and  _357
REMARK  148  A    between atoms: _360  and  _362
REMARK  149  A    between atoms: _362  and  _363
REMARK  150  A    between atoms: _362  and  _365
REMARK  151  A    between atoms: _365  and  _366
REMARK  152  A    between atoms: _369  and  _371
REMARK  153  A    between atoms: _371  and  _372
REMARK  154  A    between atoms: _371  and  _374
REMARK  155  A    between atoms: _377  and  _379
REMARK  156  A    between atoms: _379  and  _380
REMARK  157  A    between atoms: _379  and  _382
REMARK  158  A    between atoms: _382  and  _383
REMARK  159  A    between atoms: _383  and  _384
REMARK  160  A    between atoms: _384  and  _385
REMARK  161  A    between atoms: _385  and  _386
REMARK  162  A    between atoms: _390  and  _392
REMARK  163  A    between atoms: _392  and  _393
REMARK  164  A    between atoms: _392  and  _395
REMARK  165  A    between atoms: _395  and  _396
REMARK  166  A    between atoms: _396  and  _397
REMARK  167  A    between atoms: _399  and  _401
REMARK  168  A    between atoms: _401  and  _402
REMARK  169  A    between atoms: _401  and  _404
REMARK  170  A    between atoms: _404  and  _405
REMARK  171  A    between atoms: _408  and  _410
REMARK  172  A    between atoms: _410  and  _411
REMARK  173  A    between atoms: _413  and  _415
REMARK  174  A    between atoms: _415  and  _416
REMARK  175  A    between atoms: _418  and  _420
REMARK  176  A    between atoms: _420  and  _421
REMARK  177  A    between atoms: _420  and  _423
REMARK  178  A    between atoms: _423  and  _424
REMARK  179  A    between atoms: _427  and  _429
REMARK  180  A    between atoms: _429  and  _430
REMARK  181  A    between atoms: _432  and  _434
REMARK  182  A    between atoms: _434  and  _435
REMARK  183  A    between atoms: _437  and  _439
REMARK  184  A    between atoms: _439  and  _440
REMARK  185  A    between atoms: _439  and  _442
REMARK  186  A    between atoms: _442  and  _443
REMARK  187  A    between atoms: _449  and  _451
REMARK  188  A    between atoms: _451  and  _452
REMARK  189  A    between atoms: _451  and  _454
REMARK  190  A    between atoms: _454  and  _455
REMARK  191  A    between atoms: _458  and  _460
REMARK  192  A    between atoms: _460  and  _461
REMARK  193  A    between atoms: _460  and  _463
REMARK  194  A    between atoms: _463  and  _464
REMARK  195  A    between atoms: _467  and  _469
REMARK  196  A    between atoms: _469  and  _470
REMARK  197  A    between atoms: _469  and  _472
REMARK  198  A    between atoms: _472  and  _473
REMARK  199  A    between atoms: _477  and  _478
REMARK  200  A    between atoms: _483  and  _485
REMARK  201  A    between atoms: _485  and  _486
REMARK  202  A    between atoms: _485  and  _488
REMARK  203  A    between atoms: _491  and  _493
REMARK  204  A    between atoms: _493  and  _494
REMARK  205  A    between atoms: _493  and  _496
REMARK  206  A    between atoms: _496  and  _497
REMARK  207  A    between atoms: _502  and  _504
REMARK  208  A    between atoms: _504  and  _505
REMARK  209  A    between atoms: _504  and  _507
REMARK  210  A    between atoms: _507  and  _508
REMARK  211  A    between atoms: _511  and  _513
REMARK  212  A    between atoms: _513  and  _514
REMARK  213  A    between atoms: _513  and  _516
REMARK  214  A    between atoms: _516  and  _517
REMARK  215  A    between atoms: _520  and  _522
REMARK  216  A    between atoms: _522  and  _523
REMARK  217  A    between atoms: _525  and  _527
REMARK  218  A    between atoms: _527  and  _528
REMARK  219  A    between atoms: _527  and  _530
REMARK  220  A    between atoms: _530  and  _531
REMARK  221  A    between atoms: _531  and  _532
REMARK  222  A    between atoms: _532  and  _533
REMARK                            x       y       z     vdW  Elec       q    Type
REMARK                         _______ _______ _______ _____ _____    ______ ____
ROOT
ATOM      1  O   HOH     1      23.129  23.948  14.162  0.00  0.00    +0.000 OA
ENDROOT
TORSDOF 0
REMARK  Name = ../refined-set-2016/2bpv/2bpv_pocket.pdb
REMARK  222 active torsions:
REMARK  status: ('A' for Active; 'I' for Inactive)
REMARK    1  A    between atoms: _1  and  _3
REMARK    2  A    between atoms: _3  and  _4
REMARK    3  A    between atoms: _3  and  _6
REMARK    4  A    between atoms: _6  and  _7
REMARK    5  A    between atoms: _7  and  _8
REMARK    6  A    between atoms: _8  and  _9
REMARK    7  A    between atoms: _18  and  _20
REMARK    8  A    between atoms: _20  and  _21
REMARK    9  A    between atoms: _20  and  _23
REMARK   10  A    between atoms: _23  and  _24
REMARK   11  A    between atoms: _27  and  _29
REMARK   12  A    between atoms: _29  and  _30
REMARK   13  A    between atoms: _29  and  _32
REMARK   14  A    between atoms: _32  and  _33
REMARK   15  A    between atoms: _36  and  _38
REMARK   16  A    between atoms: _38  and  _39
REMARK   17  A    between atoms: _38  and  _41
REMARK   18  A    between atoms: _41  and  _42
REMARK   19  A    between atoms: _45  and  _47
REMARK   20  A    between atoms: _47  and  _48
REMARK   21  A    between atoms: _47  and  _50
REMARK   22  A    between atoms: _50  and  _51
REMARK   23  A    between atoms: _54  and  _56
REMARK   24  A    between atoms: _56  and  _57
REMARK   25  A    between atoms: _56  and  _59
REMARK   26  A    between atoms: _59  and  _60
REMARK   27  A    between atoms: _63  and  _65
REMARK   28  A    between atoms: _65  and  _66
REMARK   29  A    between atoms: _68  and  _70
REMARK   30  A    between atoms: _70  and  _71
REMARK   31  A    between atoms: _74  and  _76
REMARK   32  A    between atoms: _76  and  _77
REMARK   33  A    between atoms: _76  and  _79
REMARK   34  A    between atoms: _79  and  _80
REMARK   35  A    between atoms: _83  and  _85
REMARK   36  A    between atoms: _85  and  _86
REMARK   37  A    between atoms: _85  and  _88
REMARK   38  A    between atoms: _88  and  _89
REMARK   39  A    between atoms: _92  and  _94
REMARK   40  A    between atoms: _94  and  _95
REMARK   41  A    between atoms: _94  and  _97
REMARK   42  A    between atoms: _97  and  _98
REMARK   43  A    between atoms: _101  and  _103
REMARK   44  A    between atoms: _103  and  _104
REMARK   45  A    between atoms: _103  and  _106
REMARK   46  A    between atoms: _109  and  _111
REMARK   47  A    between atoms: _111  and  _112
REMARK   48  A    between atoms: _111  and  _114
REMARK   49  A    between atoms: _114  and  _115
REMARK   50  A    between atoms: _115  and  _116
REMARK   51  A    between atoms: _118  and  _120
REMARK   52  A    between atoms: _120  and  _121
REMARK   53  A    between atoms: _120  and  _123
REMARK   54  A    between atoms: _123  and  _124
REMARK   55  A    between atoms: _127  and  _129
REMARK   56  A    between atoms: _129  and  _130
REMARK   57  A    between atoms: _132  and  _134
REMARK   58  A    between atoms: _134  and  _135
REMARK   59  A    between atoms: _137  and  _139
REMARK   60  A    between atoms: _139  and  _140
REMARK   61  A    between atoms: _139  and  _142
REMARK   62  A    between atoms: _142  and  _143
REMARK   63  A    between atoms: _146  and  _148
REMARK   64  A    between atoms: _148  and  _149
REMARK   65  A    between atoms: _151  and  _153
REMARK   66  A    between atoms: _153  and  _154
REMARK   67  A    between atoms: _156  and  _158
REMARK   68  A    between atoms: _158  and  _159
REMARK   69  A    between atoms: _158  and  _161
REMARK   70  A    between atoms: _161  and  _162
REMARK   71  A    between atoms: _168  and  _170
REMARK   72  A    between atoms: _170  and  _171
REMARK   73  A    between atoms: _170  and  _173
REMARK   74  A    between atoms: _173  and  _174
REMARK   75  A    between atoms: _177  and  _179
REMARK   76  A    between atoms: _179  and  _180
REMARK   77  A    between atoms: _179  and  _182
REMARK   78  A    between atoms: _185  and  _187
REMARK   79  A    between atoms: _187  and  _188
REMARK   80  A    between atoms: _187  and  _190
REMARK   81  A    between atoms: _190  and  _191
REMARK   82  A    between atoms: _194  and  _196
REMARK   83  A    between atoms: _196  and  _197
REMARK   84  A    between atoms: _196  and  _199
REMARK   85  A    between atoms: _199  and  _200
REMARK   86  A    between atoms: _204  and  _205
REMARK   87  A    between atoms: _210  and  _212
REMARK   88  A    between atoms: _212  and  _213
REMARK   89  A    between atoms: _212  and  _215
REMARK   90  A    between atoms: _218  and  _220
REMARK   91  A    between atoms: _220  and  _221
REMARK   92  A    between atoms: _220  and  _223
REMARK   93  A    between atoms: _223  and  _224
REMARK   94  A    between atoms: _229  and  _231
REMARK   95  A    between atoms: _231  and  _232
REMARK   96  A    between atoms: _231  and  _234
REMARK   97  A    between atoms: _234  and  _235
REMARK   98  A    between atoms: _238  and  _240
REMARK   99  A    between atoms: _240  and  _241
REMARK  100  A    between atoms: _240  and  _243
REMARK  101  A    between atoms: _243  and  _244
REMARK  102  A    between atoms: _247  and  _249
REMARK  103  A    between atoms: _249  and  _250
REMARK  104  A    between atoms: _252  and  _254
REMARK  105  A    between atoms: _254  and  _255
REMARK  106  A    between atoms: _254  and  _257
REMARK  107  A    between atoms: _257  and  _258
REMARK  108  A    between atoms: _258  and  _259
REMARK  109  A    between atoms: _259  and  _260
REMARK  110  A    between atoms: _269  and  _271
REMARK  111  A    between atoms: _271  and  _272
REMARK  112  A    between atoms: _271  and  _274
REMARK  113  A    between atoms: _274  and  _275
REMARK  114  A    between atoms: _275  and  _276
REMARK  115  A    between atoms: _276  and  _277
REMARK  116  A    between atoms: _286  and  _288
REMARK  117  A    between atoms: _288  and  _289
REMARK  118  A    between atoms: _288  and  _291
REMARK  119  A    between atoms: _291  and  _292
REMARK  120  A    between atoms: _295  and  _297
REMARK  121  A    between atoms: _297  and  _298
REMARK  122  A    between atoms: _297  and  _300
REMARK  123  A    between atoms: _300  and  _301
REMARK  124  A    between atoms: _304  and  _306
REMARK  125  A    between atoms: _306  and  _307
REMARK  126  A    between atoms: _306  and  _309
REMARK  127  A    between atoms: _309  and  _310
REMARK  128  A    between atoms: _313  and  _315
REMARK  129  A    between atoms: _315  and  _316
REMARK  130  A    between atoms: _315  and  _318
REMARK  131  A    between atoms: _318  and  _319
REMARK  132  A    between atoms: _322  and  _324
REMARK  133  A    between atoms: _324  and  _325
REMARK  134  A    between atoms: _324  and  _327
REMARK  135  A    between atoms: _327  and  _328
REMARK  136  A    between atoms: _331  and  _333
REMARK  137  A    between atoms: _333  and  _334
REMARK  138  A    between atoms: _336  and  _338
REMARK  139  A    between atoms: _338  and  _339
REMARK  140  A    between atoms: _342  and  _344
REMARK  141  A    between atoms: _344  and  _345
REMARK  142  A    between atoms: _344  and  _347
REMARK  143  A    between atoms: _347  and  _348
REMARK  144  A    between atoms: _351  and  _353
REMARK  145  A    between atoms: _353  and  _354
REMARK  146  A    between atoms: _353  and  _356
REMARK  147  A    between atoms: _356  and  _357
REMARK  148  A    between atoms: _360  and  _362
REMARK  149  A    between atoms: _362  and  _363
REMARK  150  A    between atoms: _362  and  _365
REMARK  151  A    between atoms: _365  and  _366
REMARK  152  A    between atoms: _369  and  _371
REMARK  153  A    between atoms: _371  and  _372
REMARK  154  A    between atoms: _371  and  _374
REMARK  155  A    between atoms: _377  and  _379
REMARK  156  A    between atoms: _379  and  _380
REMARK  157  A    between atoms: _379  and  _382
REMARK  158  A    between atoms: _382  and  _383
REMARK  159  A    between atoms: _383  and  _384
REMARK  160  A    between atoms: _384  and  _385
REMARK  161  A    between atoms: _385  and  _386
REMARK  162  A    between atoms: _390  and  _392
REMARK  163  A    between atoms: _392  and  _393
REMARK  164  A    between atoms: _392  and  _395
REMARK  165  A    between atoms: _395  and  _396
REMARK  166  A    between atoms: _396  and  _397
REMARK  167  A    between atoms: _399  and  _401
REMARK  168  A    between atoms: _401  and  _402
REMARK  169  A    between atoms: _401  and  _404
REMARK  170  A    between atoms: _404  and  _405
REMARK  171  A    between atoms: _408  and  _410
REMARK  172  A    between atoms: _410  and  _411
REMARK  173  A    between atoms: _413  and  _415
REMARK  174  A    between atoms: _415  and  _416
REMARK  175  A    between atoms: _418  and  _420
REMARK  176  A    between atoms: _420  and  _421
REMARK  177  A    between atoms: _420  and  _423
REMARK  178  A    between atoms: _423  and  _424
REMARK  179  A    between atoms: _427  and  _429
REMARK  180  A    between atoms: _429  and  _430
REMARK  181  A    between atoms: _432  and  _434
REMARK  182  A    between atoms: _434  and  _435
REMARK  183  A    between atoms: _437  and  _439
REMARK  184  A    between atoms: _439  and  _440
REMARK  185  A    between atoms: _439  and  _442
REMARK  186  A    between atoms: _442  and  _443
REMARK  187  A    between atoms: _449  and  _451
REMARK  188  A    between atoms: _451  and  _452
REMARK  189  A    between atoms: _451  and  _454
REMARK  190  A    between atoms: _454  and  _455
REMARK  191  A    between atoms: _458  and  _460
REMARK  192  A    between atoms: _460  and  _461
REMARK  193  A    between atoms: _460  and  _463
REMARK  194  A    between atoms: _463  and  _464
REMARK  195  A    between atoms: _467  and  _469
REMARK  196  A    between atoms: _469  and  _470
REMARK  197  A    between atoms: _469  and  _472
REMARK  198  A    between atoms: _472  and  _473
REMARK  199  A    between atoms: _477  and  _478
REMARK  200  A    between atoms: _483  and  _485
REMARK  201  A    between atoms: _485  and  _486
REMARK  202  A    between atoms: _485  and  _488
REMARK  203  A    between atoms: _491  and  _493
REMARK  204  A    between atoms: _493  and  _494
REMARK  205  A    between atoms: _493  and  _496
REMARK  206  A    between atoms: _496  and  _497
REMARK  207  A    between atoms: _502  and  _504
REMARK  208  A    between atoms: _504  and  _505
REMARK  209  A    between atoms: _504  and  _507
REMARK  210  A    between atoms: _507  and  _508
REMARK  211  A    between atoms: _511  and  _513
REMARK  212  A    between atoms: _513  and  _514
REMARK  213  A    between atoms: _513  and  _516
REMARK  214  A    between atoms: _516  and  _517
REMARK  215  A    between atoms: _520  and  _522
REMARK  216  A    between atoms: _522  and  _523
REMARK  217  A    between atoms: _525  and  _527
REMARK  218  A    between atoms: _527  and  _528
REMARK  219  A    between atoms: _527  and  _530
REMARK  220  A    between atoms: _530  and  _531
REMARK  221  A    between atoms: _531  and  _532
REMARK  222  A    between atoms: _532  and  _533
REMARK                            x       y       z     vdW  Elec       q    Type
REMARK                         _______ _______ _______ _____ _____    ______ ____
ROOT
ATOM      1  O   HOH     1       6.263  26.880   6.155  0.00  0.00    +0.000 OA
ENDROOT
TORSDOF 0
REMARK  Name = ../refined-set-2016/2bpv/2bpv_pocket.pdb
REMARK  222 active torsions:
REMARK  status: ('A' for Active; 'I' for Inactive)
REMARK    1  A    between atoms: _1  and  _3
REMARK    2  A    between atoms: _3  and  _4
REMARK    3  A    between atoms: _3  and  _6
REMARK    4  A    between atoms: _6  and  _7
REMARK    5  A    between atoms: _7  and  _8
REMARK    6  A    between atoms: _8  and  _9
REMARK    7  A    between atoms: _18  and  _20
REMARK    8  A    between atoms: _20  and  _21
REMARK    9  A    between atoms: _20  and  _23
REMARK   10  A    between atoms: _23  and  _24
REMARK   11  A    between atoms: _27  and  _29
REMARK   12  A    between atoms: _29  and  _30
REMARK   13  A    between atoms: _29  and  _32
REMARK   14  A    between atoms: _32  and  _33
REMARK   15  A    between atoms: _36  and  _38
REMARK   16  A    between atoms: _38  and  _39
REMARK   17  A    between atoms: _38  and  _41
REMARK   18  A    between atoms: _41  and  _42
REMARK   19  A    between atoms: _45  and  _47
REMARK   20  A    between atoms: _47  and  _48
REMARK   21  A    between atoms: _47  and  _50
REMARK   22  A    between atoms: _50  and  _51
REMARK   23  A    between atoms: _54  and  _56
REMARK   24  A    between atoms: _56  and  _57
REMARK   25  A    between atoms: _56  and  _59
REMARK   26  A    between atoms: _59  and  _60
REMARK   27  A    between atoms: _63  and  _65
REMARK   28  A    between atoms: _65  and  _66
REMARK   29  A    between atoms: _68  and  _70
REMARK   30  A    between atoms: _70  and  _71
REMARK   31  A    between atoms: _74  and  _76
REMARK   32  A    between atoms: _76  and  _77
REMARK   33  A    between atoms: _76  and  _79
REMARK   34  A    between atoms: _79  and  _80
REMARK   35  A    between atoms: _83  and  _85
REMARK   36  A    between atoms: _85  and  _86
REMARK   37  A    between atoms: _85  and  _88
REMARK   38  A    between atoms: _88  and  _89
REMARK   39  A    between atoms: _92  and  _94
REMARK   40  A    between atoms: _94  and  _95
REMARK   41  A    between atoms: _94  and  _97
REMARK   42  A    between atoms: _97  and  _98
REMARK   43  A    between atoms: _101  and  _103
REMARK   44  A    between atoms: _103  and  _104
REMARK   45  A    between atoms: _103  and  _106
REMARK   46  A    between atoms: _109  and  _111
REMARK   47  A    between atoms: _111  and  _112
REMARK   48  A    between atoms: _111  and  _114
REMARK   49  A    between atoms: _114  and  _115
REMARK   50  A    between atoms: _115  and  _116
REMARK   51  A    between atoms: _118  and  _120
REMARK   52  A    between atoms: _120  and  _121
REMARK   53  A    between atoms: _120  and  _123
REMARK   54  A    between atoms: _123  and  _124
REMARK   55  A    between atoms: _127  and  _129
REMARK   56  A    between atoms: _129  and  _130
REMARK   57  A    between atoms: _132  and  _134
REMARK   58  A    between atoms: _134  and  _135
REMARK   59  A    between atoms: _137  and  _139
REMARK   60  A    between atoms: _139  and  _140
REMARK   61  A    between atoms: _139  and  _142
REMARK   62  A    between atoms: _142  and  _143
REMARK   63  A    between atoms: _146  and  _148
REMARK   64  A    between atoms: _148  and  _149
REMARK   65  A    between atoms: _151  and  _153
REMARK   66  A    between atoms: _153  and  _154
REMARK   67  A    between atoms: _156  and  _158
REMARK   68  A    between atoms: _158  and  _159
REMARK   69  A    between atoms: _158  and  _161
REMARK   70  A    between atoms: _161  and  _162
REMARK   71  A    between atoms: _168  and  _170
REMARK   72  A    between atoms: _170  and  _171
REMARK   73  A    between atoms: _170  and  _173
REMARK   74  A    between atoms: _173  and  _174
REMARK   75  A    between atoms: _177  and  _179
REMARK   76  A    between atoms: _179  and  _180
REMARK   77  A    between atoms: _179  and  _182
REMARK   78  A    between atoms: _185  and  _187
REMARK   79  A    between atoms: _187  and  _188
REMARK   80  A    between atoms: _187  and  _190
REMARK   81  A    between atoms: _190  and  _191
REMARK   82  A    between atoms: _194  and  _196
REMARK   83  A    between atoms: _196  and  _197
REMARK   84  A    between atoms: _196  and  _199
REMARK   85  A    between atoms: _199  and  _200
REMARK   86  A    between atoms: _204  and  _205
REMARK   87  A    between atoms: _210  and  _212
REMARK   88  A    between atoms: _212  and  _213
REMARK   89  A    between atoms: _212  and  _215
REMARK   90  A    between atoms: _218  and  _220
REMARK   91  A    between atoms: _220  and  _221
REMARK   92  A    between atoms: _220  and  _223
REMARK   93  A    between atoms: _223  and  _224
REMARK   94  A    between atoms: _229  and  _231
REMARK   95  A    between atoms: _231  and  _232
REMARK   96  A    between atoms: _231  and  _234
REMARK   97  A    between atoms: _234  and  _235
REMARK   98  A    between atoms: _238  and  _240
REMARK   99  A    between atoms: _240  and  _241
REMARK  100  A    between atoms: _240  and  _243
REMARK  101  A    between atoms: _243  and  _244
REMARK  102  A    between atoms: _247  and  _249
REMARK  103  A    between atoms: _249  and  _250
REMARK  104  A    between atoms: _252  and  _254
REMARK  105  A    between atoms: _254  and  _255
REMARK  106  A    between atoms: _254  and  _257
REMARK  107  A    between atoms: _257  and  _258
REMARK  108  A    between atoms: _258  and  _259
REMARK  109  A    between atoms: _259  and  _260
REMARK  110  A    between atoms: _269  and  _271
REMARK  111  A    between atoms: _271  and  _272
REMARK  112  A    between atoms: _271  and  _274
REMARK  113  A    between atoms: _274  and  _275
REMARK  114  A    between atoms: _275  and  _276
REMARK  115  A    between atoms: _276  and  _277
REMARK  116  A    between atoms: _286  and  _288
REMARK  117  A    between atoms: _288  and  _289
REMARK  118  A    between atoms: _288  and  _291
REMARK  119  A    between atoms: _291  and  _292
REMARK  120  A    between atoms: _295  and  _297
REMARK  121  A    between atoms: _297  and  _298
REMARK  122  A    between atoms: _297  and  _300
REMARK  123  A    between atoms: _300  and  _301
REMARK  124  A    between atoms: _304  and  _306
REMARK  125  A    between atoms: _306  and  _307
REMARK  126  A    between atoms: _306  and  _309
REMARK  127  A    between atoms: _309  and  _310
REMARK  128  A    between atoms: _313  and  _315
REMARK  129  A    between atoms: _315  and  _316
REMARK  130  A    between atoms: _315  and  _318
REMARK  131  A    between atoms: _318  and  _319
REMARK  132  A    between atoms: _322  and  _324
REMARK  133  A    between atoms: _324  and  _325
REMARK  134  A    between atoms: _324  and  _327
REMARK  135  A    between atoms: _327  and  _328
REMARK  136  A    between atoms: _331  and  _333
REMARK  137  A    between atoms: _333  and  _334
REMARK  138  A    between atoms: _336  and  _338
REMARK  139  A    between atoms: _338  and  _339
REMARK  140  A    between atoms: _342  and  _344
REMARK  141  A    between atoms: _344  and  _345
REMARK  142  A    between atoms: _344  and  _347
REMARK  143  A    between atoms: _347  and  _348
REMARK  144  A    between atoms: _351  and  _353
REMARK  145  A    between atoms: _353  and  _354
REMARK  146  A    between atoms: _353  and  _356
REMARK  147  A    between atoms: _356  and  _357
REMARK  148  A    between atoms: _360  and  _362
REMARK  149  A    between atoms: _362  and  _363
REMARK  150  A    between atoms: _362  and  _365
REMARK  151  A    between atoms: _365  and  _366
REMARK  152  A    between atoms: _369  and  _371
REMARK  153  A    between atoms: _371  and  _372
REMARK  154  A    between atoms: _371  and  _374
REMARK  155  A    between atoms: _377  and  _379
REMARK  156  A    between atoms: _379  and  _380
REMARK  157  A    between atoms: _379  and  _382
REMARK  158  A    between atoms: _382  and  _383
REMARK  159  A    between atoms: _383  and  _384
REMARK  160  A    between atoms: _384  and  _385
REMARK  161  A    between atoms: _385  and  _386
REMARK  162  A    between atoms: _390  and  _392
REMARK  163  A    between atoms: _392  and  _393
REMARK  164  A    between atoms: _392  and  _395
REMARK  165  A    between atoms: _395  and  _396
REMARK  166  A    between atoms: _396  and  _397
REMARK  167  A    between atoms: _399  and  _401
REMARK  168  A    between atoms: _401  and  _402
REMARK  169  A    between atoms: _401  and  _404
REMARK  170  A    between atoms: _404  and  _405
REMARK  171  A    between atoms: _408  and  _410
REMARK  172  A    between atoms: _410  and  _411
REMARK  173  A    between atoms: _413  and  _415
REMARK  174  A    between atoms: _415  and  _416
REMARK  175  A    between atoms: _418  and  _420
REMARK  176  A    between atoms: _420  and  _421
REMARK  177  A    between atoms: _420  and  _423
REMARK  178  A    between atoms: _423  and  _424
REMARK  179  A    between atoms: _427  and  _429
REMARK  180  A    between atoms: _429  and  _430
REMARK  181  A    between atoms: _432  and  _434
REMARK  182  A    between atoms: _434  and  _435
REMARK  183  A    between atoms: _437  and  _439
REMARK  184  A    between atoms: _439  and  _440
REMARK  185  A    between atoms: _439  and  _442
REMARK  186  A    between atoms: _442  and  _443
REMARK  187  A    between atoms: _449  and  _451
REMARK  188  A    between atoms: _451  and  _452
REMARK  189  A    between atoms: _451  and  _454
REMARK  190  A    between atoms: _454  and  _455
REMARK  191  A    between atoms: _458  and  _460
REMARK  192  A    between atoms: _460  and  _461
REMARK  193  A    between atoms: _460  and  _463
REMARK  194  A    between atoms: _463  and  _464
REMARK  195  A    between atoms: _467  and  _469
REMARK  196  A    between atoms: _469  and  _470
REMARK  197  A    between atoms: _469  and  _472
REMARK  198  A    between atoms: _472  and  _473
REMARK  199  A    between atoms: _477  and  _478
REMARK  200  A    between atoms: _483  and  _485
REMARK  201  A    between atoms: _485  and  _486
REMARK  202  A    between atoms: _485  and  _488
REMARK  203  A    between atoms: _491  and  _493
REMARK  204  A    between atoms: _493  and  _494
REMARK  205  A    between atoms: _493  and  _496
REMARK  206  A    between atoms: _496  and  _497
REMARK  207  A    between atoms: _502  and  _504
REMARK  208  A    between atoms: _504  and  _505
REMARK  209  A    between atoms: _504  and  _507
REMARK  210  A    between atoms: _507  and  _508
REMARK  211  A    between atoms: _511  and  _513
REMARK  212  A    between atoms: _513  and  _514
REMARK  213  A    between atoms: _513  and  _516
REMARK  214  A    between atoms: _516  and  _517
REMARK  215  A    between atoms: _520  and  _522
REMARK  216  A    between atoms: _522  and  _523
REMARK  217  A    between atoms: _525  and  _527
REMARK  218  A    between atoms: _527  and  _528
REMARK  219  A    between atoms: _527  and  _530
REMARK  220  A    between atoms: _530  and  _531
REMARK  221  A    between atoms: _531  and  _532
REMARK  222  A    between atoms: _532  and  _533
REMARK                            x       y       z     vdW  Elec       q    Type
REMARK                         _______ _______ _______ _____ _____    ______ ____
ROOT
ATOM      1  O   HOH     1      25.064  17.666   9.682  0.00  0.00    +0.000 OA
ENDROOT
TORSDOF 0
REMARK  Name = ../refined-set-2016/2bpv/2bpv_pocket.pdb
REMARK  222 active torsions:
REMARK  status: ('A' for Active; 'I' for Inactive)
REMARK    1  A    between atoms: _1  and  _3
REMARK    2  A    between atoms: _3  and  _4
REMARK    3  A    between atoms: _3  and  _6
REMARK    4  A    between atoms: _6  and  _7
REMARK    5  A    between atoms: _7  and  _8
REMARK    6  A    between atoms: _8  and  _9
REMARK    7  A    between atoms: _18  and  _20
REMARK    8  A    between atoms: _20  and  _21
REMARK    9  A    between atoms: _20  and  _23
REMARK   10  A    between atoms: _23  and  _24
REMARK   11  A    between atoms: _27  and  _29
REMARK   12  A    between atoms: _29  and  _30
REMARK   13  A    between atoms: _29  and  _32
REMARK   14  A    between atoms: _32  and  _33
REMARK   15  A    between atoms: _36  and  _38
REMARK   16  A    between atoms: _38  and  _39
REMARK   17  A    between atoms: _38  and  _41
REMARK   18  A    between atoms: _41  and  _42
REMARK   19  A    between atoms: _45  and  _47
REMARK   20  A    between atoms: _47  and  _48
REMARK   21  A    between atoms: _47  and  _50
REMARK   22  A    between atoms: _50  and  _51
REMARK   23  A    between atoms: _54  and  _56
REMARK   24  A    between atoms: _56  and  _57
REMARK   25  A    between atoms: _56  and  _59
REMARK   26  A    between atoms: _59  and  _60
REMARK   27  A    between atoms: _63  and  _65
REMARK   28  A    between atoms: _65  and  _66
REMARK   29  A    between atoms: _68  and  _70
REMARK   30  A    between atoms: _70  and  _71
REMARK   31  A    between atoms: _74  and  _76
REMARK   32  A    between atoms: _76  and  _77
REMARK   33  A    between atoms: _76  and  _79
REMARK   34  A    between atoms: _79  and  _80
REMARK   35  A    between atoms: _83  and  _85
REMARK   36  A    between atoms: _85  and  _86
REMARK   37  A    between atoms: _85  and  _88
REMARK   38  A    between atoms: _88  and  _89
REMARK   39  A    between atoms: _92  and  _94
REMARK   40  A    between atoms: _94  and  _95
REMARK   41  A    between atoms: _94  and  _97
REMARK   42  A    between atoms: _97  and  _98
REMARK   43  A    between atoms: _101  and  _103
REMARK   44  A    between atoms: _103  and  _104
REMARK   45  A    between atoms: _103  and  _106
REMARK   46  A    between atoms: _109  and  _111
REMARK   47  A    between atoms: _111  and  _112
REMARK   48  A    between atoms: _111  and  _114
REMARK   49  A    between atoms: _114  and  _115
REMARK   50  A    between atoms: _115  and  _116
REMARK   51  A    between atoms: _118  and  _120
REMARK   52  A    between atoms: _120  and  _121
REMARK   53  A    between atoms: _120  and  _123
REMARK   54  A    between atoms: _123  and  _124
REMARK   55  A    between atoms: _127  and  _129
REMARK   56  A    between atoms: _129  and  _130
REMARK   57  A    between atoms: _132  and  _134
REMARK   58  A    between atoms: _134  and  _135
REMARK   59  A    between atoms: _137  and  _139
REMARK   60  A    between atoms: _139  and  _140
REMARK   61  A    between atoms: _139  and  _142
REMARK   62  A    between atoms: _142  and  _143
REMARK   63  A    between atoms: _146  and  _148
REMARK   64  A    between atoms: _148  and  _149
REMARK   65  A    between atoms: _151  and  _153
REMARK   66  A    between atoms: _153  and  _154
REMARK   67  A    between atoms: _156  and  _158
REMARK   68  A    between atoms: _158  and  _159
REMARK   69  A    between atoms: _158  and  _161
REMARK   70  A    between atoms: _161  and  _162
REMARK   71  A    between atoms: _168  and  _170
REMARK   72  A    between atoms: _170  and  _171
REMARK   73  A    between atoms: _170  and  _173
REMARK   74  A    between atoms: _173  and  _174
REMARK   75  A    between atoms: _177  and  _179
REMARK   76  A    between atoms: _179  and  _180
REMARK   77  A    between atoms: _179  and  _182
REMARK   78  A    between atoms: _185  and  _187
REMARK   79  A    between atoms: _187  and  _188
REMARK   80  A    between atoms: _187  and  _190
REMARK   81  A    between atoms: _190  and  _191
REMARK   82  A    between atoms: _194  and  _196
REMARK   83  A    between atoms: _196  and  _197
REMARK   84  A    between atoms: _196  and  _199
REMARK   85  A    between atoms: _199  and  _200
REMARK   86  A    between atoms: _204  and  _205
REMARK   87  A    between atoms: _210  and  _212
REMARK   88  A    between atoms: _212  and  _213
REMARK   89  A    between atoms: _212  and  _215
REMARK   90  A    between atoms: _218  and  _220
REMARK   91  A    between atoms: _220  and  _221
REMARK   92  A    between atoms: _220  and  _223
REMARK   93  A    between atoms: _223  and  _224
REMARK   94  A    between atoms: _229  and  _231
REMARK   95  A    between atoms: _231  and  _232
REMARK   96  A    between atoms: _231  and  _234
REMARK   97  A    between atoms: _234  and  _235
REMARK   98  A    between atoms: _238  and  _240
REMARK   99  A    between atoms: _240  and  _241
REMARK  100  A    between atoms: _240  and  _243
REMARK  101  A    between atoms: _243  and  _244
REMARK  102  A    between atoms: _247  and  _249
REMARK  103  A    between atoms: _249  and  _250
REMARK  104  A    between atoms: _252  and  _254
REMARK  105  A    between atoms: _254  and  _255
REMARK  106  A    between atoms: _254  and  _257
REMARK  107  A    between atoms: _257  and  _258
REMARK  108  A    between atoms: _258  and  _259
REMARK  109  A    between atoms: _259  and  _260
REMARK  110  A    between atoms: _269  and  _271
REMARK  111  A    between atoms: _271  and  _272
REMARK  112  A    between atoms: _271  and  _274
REMARK  113  A    between atoms: _274  and  _275
REMARK  114  A    between atoms: _275  and  _276
REMARK  115  A    between atoms: _276  and  _277
REMARK  116  A    between atoms: _286  and  _288
REMARK  117  A    between atoms: _288  and  _289
REMARK  118  A    between atoms: _288  and  _291
REMARK  119  A    between atoms: _291  and  _292
REMARK  120  A    between atoms: _295  and  _297
REMARK  121  A    between atoms: _297  and  _298
REMARK  122  A    between atoms: _297  and  _300
REMARK  123  A    between atoms: _300  and  _301
REMARK  124  A    between atoms: _304  and  _306
REMARK  125  A    between atoms: _306  and  _307
REMARK  126  A    between atoms: _306  and  _309
REMARK  127  A    between atoms: _309  and  _310
REMARK  128  A    between atoms: _313  and  _315
REMARK  129  A    between atoms: _315  and  _316
REMARK  130  A    between atoms: _315  and  _318
REMARK  131  A    between atoms: _318  and  _319
REMARK  132  A    between atoms: _322  and  _324
REMARK  133  A    between atoms: _324  and  _325
REMARK  134  A    between atoms: _324  and  _327
REMARK  135  A    between atoms: _327  and  _328
REMARK  136  A    between atoms: _331  and  _333
REMARK  137  A    between atoms: _333  and  _334
REMARK  138  A    between atoms: _336  and  _338
REMARK  139  A    between atoms: _338  and  _339
REMARK  140  A    between atoms: _342  and  _344
REMARK  141  A    between atoms: _344  and  _345
REMARK  142  A    between atoms: _344  and  _347
REMARK  143  A    between atoms: _347  and  _348
REMARK  144  A    between atoms: _351  and  _353
REMARK  145  A    between atoms: _353  and  _354
REMARK  146  A    between atoms: _353  and  _356
REMARK  147  A    between atoms: _356  and  _357
REMARK  148  A    between atoms: _360  and  _362
REMARK  149  A    between atoms: _362  and  _363
REMARK  150  A    between atoms: _362  and  _365
REMARK  151  A    between atoms: _365  and  _366
REMARK  152  A    between atoms: _369  and  _371
REMARK  153  A    between atoms: _371  and  _372
REMARK  154  A    between atoms: _371  and  _374
REMARK  155  A    between atoms: _377  and  _379
REMARK  156  A    between atoms: _379  and  _380
REMARK  157  A    between atoms: _379  and  _382
REMARK  158  A    between atoms: _382  and  _383
REMARK  159  A    between atoms: _383  and  _384
REMARK  160  A    between atoms: _384  and  _385
REMARK  161  A    between atoms: _385  and  _386
REMARK  162  A    between atoms: _390  and  _392
REMARK  163  A    between atoms: _392  and  _393
REMARK  164  A    between atoms: _392  and  _395
REMARK  165  A    between atoms: _395  and  _396
REMARK  166  A    between atoms: _396  and  _397
REMARK  167  A    between atoms: _399  and  _401
REMARK  168  A    between atoms: _401  and  _402
REMARK  169  A    between atoms: _401  and  _404
REMARK  170  A    between atoms: _404  and  _405
REMARK  171  A    between atoms: _408  and  _410
REMARK  172  A    between atoms: _410  and  _411
REMARK  173  A    between atoms: _413  and  _415
REMARK  174  A    between atoms: _415  and  _416
REMARK  175  A    between atoms: _418  and  _420
REMARK  176  A    between atoms: _420  and  _421
REMARK  177  A    between atoms: _420  and  _423
REMARK  178  A    between atoms: _423  and  _424
REMARK  179  A    between atoms: _427  and  _429
REMARK  180  A    between atoms: _429  and  _430
REMARK  181  A    between atoms: _432  and  _434
REMARK  182  A    between atoms: _434  and  _435
REMARK  183  A    between atoms: _437  and  _439
REMARK  184  A    between atoms: _439  and  _440
REMARK  185  A    between atoms: _439  and  _442
REMARK  186  A    between atoms: _442  and  _443
REMARK  187  A    between atoms: _449  and  _451
REMARK  188  A    between atoms: _451  and  _452
REMARK  189  A    between atoms: _451  and  _454
REMARK  190  A    between atoms: _454  and  _455
REMARK  191  A    between atoms: _458  and  _460
REMARK  192  A    between atoms: _460  and  _461
REMARK  193  A    between atoms: _460  and  _463
REMARK  194  A    between atoms: _463  and  _464
REMARK  195  A    between atoms: _467  and  _469
REMARK  196  A    between atoms: _469  and  _470
REMARK  197  A    between atoms: _469  and  _472
REMARK  198  A    between atoms: _472  and  _473
REMARK  199  A    between atoms: _477  and  _478
REMARK  200  A    between atoms: _483  and  _485
REMARK  201  A    between atoms: _485  and  _486
REMARK  202  A    between atoms: _485  and  _488
REMARK  203  A    between atoms: _491  and  _493
REMARK  204  A    between atoms: _493  and  _494
REMARK  205  A    between atoms: _493  and  _496
REMARK  206  A    between atoms: _496  and  _497
REMARK  207  A    between atoms: _502  and  _504
REMARK  208  A    between atoms: _504  and  _505
REMARK  209  A    between atoms: _504  and  _507
REMARK  210  A    between atoms: _507  and  _508
REMARK  211  A    between atoms: _511  and  _513
REMARK  212  A    between atoms: _513  and  _514
REMARK  213  A    between atoms: _513  and  _516
REMARK  214  A    between atoms: _516  and  _517
REMARK  215  A    between atoms: _520  and  _522
REMARK  216  A    between atoms: _522  and  _523
REMARK  217  A    between atoms: _525  and  _527
REMARK  218  A    between atoms: _527  and  _528
REMARK  219  A    between atoms: _527  and  _530
REMARK  220  A    between atoms: _530  and  _531
REMARK  221  A    between atoms: _531  and  _532
REMARK  222  A    between atoms: _532  and  _533
REMARK                            x       y       z     vdW  Elec       q    Type
REMARK                         _______ _______ _______ _____ _____    ______ ____
ROOT
ATOM      1  O   HOH     1      20.261  17.696  10.868  0.00  0.00    +0.000 OA
ENDROOT
TORSDOF 0
REMARK  Name = ../refined-set-2016/2bpv/2bpv_pocket.pdb
REMARK  222 active torsions:
REMARK  status: ('A' for Active; 'I' for Inactive)
REMARK    1  A    between atoms: _1  and  _3
REMARK    2  A    between atoms: _3  and  _4
REMARK    3  A    between atoms: _3  and  _6
REMARK    4  A    between atoms: _6  and  _7
REMARK    5  A    between atoms: _7  and  _8
REMARK    6  A    between atoms: _8  and  _9
REMARK    7  A    between atoms: _18  and  _20
REMARK    8  A    between atoms: _20  and  _21
REMARK    9  A    between atoms: _20  and  _23
REMARK   10  A    between atoms: _23  and  _24
REMARK   11  A    between atoms: _27  and  _29
REMARK   12  A    between atoms: _29  and  _30
REMARK   13  A    between atoms: _29  and  _32
REMARK   14  A    between atoms: _32  and  _33
REMARK   15  A    between atoms: _36  and  _38
REMARK   16  A    between atoms: _38  and  _39
REMARK   17  A    between atoms: _38  and  _41
REMARK   18  A    between atoms: _41  and  _42
REMARK   19  A    between atoms: _45  and  _47
REMARK   20  A    between atoms: _47  and  _48
REMARK   21  A    between atoms: _47  and  _50
REMARK   22  A    between atoms: _50  and  _51
REMARK   23  A    between atoms: _54  and  _56
REMARK   24  A    between atoms: _56  and  _57
REMARK   25  A    between atoms: _56  and  _59
REMARK   26  A    between atoms: _59  and  _60
REMARK   27  A    between atoms: _63  and  _65
REMARK   28  A    between atoms: _65  and  _66
REMARK   29  A    between atoms: _68  and  _70
REMARK   30  A    between atoms: _70  and  _71
REMARK   31  A    between atoms: _74  and  _76
REMARK   32  A    between atoms: _76  and  _77
REMARK   33  A    between atoms: _76  and  _79
REMARK   34  A    between atoms: _79  and  _80
REMARK   35  A    between atoms: _83  and  _85
REMARK   36  A    between atoms: _85  and  _86
REMARK   37  A    between atoms: _85  and  _88
REMARK   38  A    between atoms: _88  and  _89
REMARK   39  A    between atoms: _92  and  _94
REMARK   40  A    between atoms: _94  and  _95
REMARK   41  A    between atoms: _94  and  _97
REMARK   42  A    between atoms: _97  and  _98
REMARK   43  A    between atoms: _101  and  _103
REMARK   44  A    between atoms: _103  and  _104
REMARK   45  A    between atoms: _103  and  _106
REMARK   46  A    between atoms: _109  and  _111
REMARK   47  A    between atoms: _111  and  _112
REMARK   48  A    between atoms: _111  and  _114
REMARK   49  A    between atoms: _114  and  _115
REMARK   50  A    between atoms: _115  and  _116
REMARK   51  A    between atoms: _118  and  _120
REMARK   52  A    between atoms: _120  and  _121
REMARK   53  A    between atoms: _120  and  _123
REMARK   54  A    between atoms: _123  and  _124
REMARK   55  A    between atoms: _127  and  _129
REMARK   56  A    between atoms: _129  and  _130
REMARK   57  A    between atoms: _132  and  _134
REMARK   58  A    between atoms: _134  and  _135
REMARK   59  A    between atoms: _137  and  _139
REMARK   60  A    between atoms: _139  and  _140
REMARK   61  A    between atoms: _139  and  _142
REMARK   62  A    between atoms: _142  and  _143
REMARK   63  A    between atoms: _146  and  _148
REMARK   64  A    between atoms: _148  and  _149
REMARK   65  A    between atoms: _151  and  _153
REMARK   66  A    between atoms: _153  and  _154
REMARK   67  A    between atoms: _156  and  _158
REMARK   68  A    between atoms: _158  and  _159
REMARK   69  A    between atoms: _158  and  _161
REMARK   70  A    between atoms: _161  and  _162
REMARK   71  A    between atoms: _168  and  _170
REMARK   72  A    between atoms: _170  and  _171
REMARK   73  A    between atoms: _170  and  _173
REMARK   74  A    between atoms: _173  and  _174
REMARK   75  A    between atoms: _177  and  _179
REMARK   76  A    between atoms: _179  and  _180
REMARK   77  A    between atoms: _179  and  _182
REMARK   78  A    between atoms: _185  and  _187
REMARK   79  A    between atoms: _187  and  _188
REMARK   80  A    between atoms: _187  and  _190
REMARK   81  A    between atoms: _190  and  _191
REMARK   82  A    between atoms: _194  and  _196
REMARK   83  A    between atoms: _196  and  _197
REMARK   84  A    between atoms: _196  and  _199
REMARK   85  A    between atoms: _199  and  _200
REMARK   86  A    between atoms: _204  and  _205
REMARK   87  A    between atoms: _210  and  _212
REMARK   88  A    between atoms: _212  and  _213
REMARK   89  A    between atoms: _212  and  _215
REMARK   90  A    between atoms: _218  and  _220
REMARK   91  A    between atoms: _220  and  _221
REMARK   92  A    between atoms: _220  and  _223
REMARK   93  A    between atoms: _223  and  _224
REMARK   94  A    between atoms: _229  and  _231
REMARK   95  A    between atoms: _231  and  _232
REMARK   96  A    between atoms: _231  and  _234
REMARK   97  A    between atoms: _234  and  _235
REMARK   98  A    between atoms: _238  and  _240
REMARK   99  A    between atoms: _240  and  _241
REMARK  100  A    between atoms: _240  and  _243
REMARK  101  A    between atoms: _243  and  _244
REMARK  102  A    between atoms: _247  and  _249
REMARK  103  A    between atoms: _249  and  _250
REMARK  104  A    between atoms: _252  and  _254
REMARK  105  A    between atoms: _254  and  _255
REMARK  106  A    between atoms: _254  and  _257
REMARK  107  A    between atoms: _257  and  _258
REMARK  108  A    between atoms: _258  and  _259
REMARK  109  A    between atoms: _259  and  _260
REMARK  110  A    between atoms: _269  and  _271
REMARK  111  A    between atoms: _271  and  _272
REMARK  112  A    between atoms: _271  and  _274
REMARK  113  A    between atoms: _274  and  _275
REMARK  114  A    between atoms: _275  and  _276
REMARK  115  A    between atoms: _276  and  _277
REMARK  116  A    between atoms: _286  and  _288
REMARK  117  A    between atoms: _288  and  _289
REMARK  118  A    between atoms: _288  and  _291
REMARK  119  A    between atoms: _291  and  _292
REMARK  120  A    between atoms: _295  and  _297
REMARK  121  A    between atoms: _297  and  _298
REMARK  122  A    between atoms: _297  and  _300
REMARK  123  A    between atoms: _300  and  _301
REMARK  124  A    between atoms: _304  and  _306
REMARK  125  A    between atoms: _306  and  _307
REMARK  126  A    between atoms: _306  and  _309
REMARK  127  A    between atoms: _309  and  _310
REMARK  128  A    between atoms: _313  and  _315
REMARK  129  A    between atoms: _315  and  _316
REMARK  130  A    between atoms: _315  and  _318
REMARK  131  A    between atoms: _318  and  _319
REMARK  132  A    between atoms: _322  and  _324
REMARK  133  A    between atoms: _324  and  _325
REMARK  134  A    between atoms: _324  and  _327
REMARK  135  A    between atoms: _327  and  _328
REMARK  136  A    between atoms: _331  and  _333
REMARK  137  A    between atoms: _333  and  _334
REMARK  138  A    between atoms: _336  and  _338
REMARK  139  A    between atoms: _338  and  _339
REMARK  140  A    between atoms: _342  and  _344
REMARK  141  A    between atoms: _344  and  _345
REMARK  142  A    between atoms: _344  and  _347
REMARK  143  A    between atoms: _347  and  _348
REMARK  144  A    between atoms: _351  and  _353
REMARK  145  A    between atoms: _353  and  _354
REMARK  146  A    between atoms: _353  and  _356
REMARK  147  A    between atoms: _356  and  _357
REMARK  148  A    between atoms: _360  and  _362
REMARK  149  A    between atoms: _362  and  _363
REMARK  150  A    between atoms: _362  and  _365
REMARK  151  A    between atoms: _365  and  _366
REMARK  152  A    between atoms: _369  and  _371
REMARK  153  A    between atoms: _371  and  _372
REMARK  154  A    between atoms: _371  and  _374
REMARK  155  A    between atoms: _377  and  _379
REMARK  156  A    between atoms: _379  and  _380
REMARK  157  A    between atoms: _379  and  _382
REMARK  158  A    between atoms: _382  and  _383
REMARK  159  A    between atoms: _383  and  _384
REMARK  160  A    between atoms: _384  and  _385
REMARK  161  A    between atoms: _385  and  _386
REMARK  162  A    between atoms: _390  and  _392
REMARK  163  A    between atoms: _392  and  _393
REMARK  164  A    between atoms: _392  and  _395
REMARK  165  A    between atoms: _395  and  _396
REMARK  166  A    between atoms: _396  and  _397
REMARK  167  A    between atoms: _399  and  _401
REMARK  168  A    between atoms: _401  and  _402
REMARK  169  A    between atoms: _401  and  _404
REMARK  170  A    between atoms: _404  and  _405
REMARK  171  A    between atoms: _408  and  _410
REMARK  172  A    between atoms: _410  and  _411
REMARK  173  A    between atoms: _413  and  _415
REMARK  174  A    between atoms: _415  and  _416
REMARK  175  A    between atoms: _418  and  _420
REMARK  176  A    between atoms: _420  and  _421
REMARK  177  A    between atoms: _420  and  _423
REMARK  178  A    between atoms: _423  and  _424
REMARK  179  A    between atoms: _427  and  _429
REMARK  180  A    between atoms: _429  and  _430
REMARK  181  A    between atoms: _432  and  _434
REMARK  182  A    between atoms: _434  and  _435
REMARK  183  A    between atoms: _437  and  _439
REMARK  184  A    between atoms: _439  and  _440
REMARK  185  A    between atoms: _439  and  _442
REMARK  186  A    between atoms: _442  and  _443
REMARK  187  A    between atoms: _449  and  _451
REMARK  188  A    between atoms: _451  and  _452
REMARK  189  A    between atoms: _451  and  _454
REMARK  190  A    between atoms: _454  and  _455
REMARK  191  A    between atoms: _458  and  _460
REMARK  192  A    between atoms: _460  and  _461
REMARK  193  A    between atoms: _460  and  _463
REMARK  194  A    between atoms: _463  and  _464
REMARK  195  A    between atoms: _467  and  _469
REMARK  196  A    between atoms: _469  and  _470
REMARK  197  A    between atoms: _469  and  _472
REMARK  198  A    between atoms: _472  and  _473
REMARK  199  A    between atoms: _477  and  _478
REMARK  200  A    between atoms: _483  and  _485
REMARK  201  A    between atoms: _485  and  _486
REMARK  202  A    between atoms: _485  and  _488
REMARK  203  A    between atoms: _491  and  _493
REMARK  204  A    between atoms: _493  and  _494
REMARK  205  A    between atoms: _493  and  _496
REMARK  206  A    between atoms: _496  and  _497
REMARK  207  A    between atoms: _502  and  _504
REMARK  208  A    between atoms: _504  and  _505
REMARK  209  A    between atoms: _504  and  _507
REMARK  210  A    between atoms: _507  and  _508
REMARK  211  A    between atoms: _511  and  _513
REMARK  212  A    between atoms: _513  and  _514
REMARK  213  A    between atoms: _513  and  _516
REMARK  214  A    between atoms: _516  and  _517
REMARK  215  A    between atoms: _520  and  _522
REMARK  216  A    between atoms: _522  and  _523
REMARK  217  A    between atoms: _525  and  _527
REMARK  218  A    between atoms: _527  and  _528
REMARK  219  A    between atoms: _527  and  _530
REMARK  220  A    between atoms: _530  and  _531
REMARK  221  A    between atoms: _531  and  _532
REMARK  222  A    between atoms: _532  and  _533
REMARK                            x       y       z     vdW  Elec       q    Type
REMARK                         _______ _______ _______ _____ _____    ______ ____
ROOT
ATOM      1  O   HOH     1       8.933  28.787   1.761  0.00  0.00    +0.000 OA
ENDROOT
TORSDOF 0
REMARK  Name = ../refined-set-2016/2bpv/2bpv_pocket.pdb
REMARK  222 active torsions:
REMARK  status: ('A' for Active; 'I' for Inactive)
REMARK    1  A    between atoms: _1  and  _3
REMARK    2  A    between atoms: _3  and  _4
REMARK    3  A    between atoms: _3  and  _6
REMARK    4  A    between atoms: _6  and  _7
REMARK    5  A    between atoms: _7  and  _8
REMARK    6  A    between atoms: _8  and  _9
REMARK    7  A    between atoms: _18  and  _20
REMARK    8  A    between atoms: _20  and  _21
REMARK    9  A    between atoms: _20  and  _23
REMARK   10  A    between atoms: _23  and  _24
REMARK   11  A    between atoms: _27  and  _29
REMARK   12  A    between atoms: _29  and  _30
REMARK   13  A    between atoms: _29  and  _32
REMARK   14  A    between atoms: _32  and  _33
REMARK   15  A    between atoms: _36  and  _38
REMARK   16  A    between atoms: _38  and  _39
REMARK   17  A    between atoms: _38  and  _41
REMARK   18  A    between atoms: _41  and  _42
REMARK   19  A    between atoms: _45  and  _47
REMARK   20  A    between atoms: _47  and  _48
REMARK   21  A    between atoms: _47  and  _50
REMARK   22  A    between atoms: _50  and  _51
REMARK   23  A    between atoms: _54  and  _56
REMARK   24  A    between atoms: _56  and  _57
REMARK   25  A    between atoms: _56  and  _59
REMARK   26  A    between atoms: _59  and  _60
REMARK   27  A    between atoms: _63  and  _65
REMARK   28  A    between atoms: _65  and  _66
REMARK   29  A    between atoms: _68  and  _70
REMARK   30  A    between atoms: _70  and  _71
REMARK   31  A    between atoms: _74  and  _76
REMARK   32  A    between atoms: _76  and  _77
REMARK   33  A    between atoms: _76  and  _79
REMARK   34  A    between atoms: _79  and  _80
REMARK   35  A    between atoms: _83  and  _85
REMARK   36  A    between atoms: _85  and  _86
REMARK   37  A    between atoms: _85  and  _88
REMARK   38  A    between atoms: _88  and  _89
REMARK   39  A    between atoms: _92  and  _94
REMARK   40  A    between atoms: _94  and  _95
REMARK   41  A    between atoms: _94  and  _97
REMARK   42  A    between atoms: _97  and  _98
REMARK   43  A    between atoms: _101  and  _103
REMARK   44  A    between atoms: _103  and  _104
REMARK   45  A    between atoms: _103  and  _106
REMARK   46  A    between atoms: _109  and  _111
REMARK   47  A    between atoms: _111  and  _112
REMARK   48  A    between atoms: _111  and  _114
REMARK   49  A    between atoms: _114  and  _115
REMARK   50  A    between atoms: _115  and  _116
REMARK   51  A    between atoms: _118  and  _120
REMARK   52  A    between atoms: _120  and  _121
REMARK   53  A    between atoms: _120  and  _123
REMARK   54  A    between atoms: _123  and  _124
REMARK   55  A    between atoms: _127  and  _129
REMARK   56  A    between atoms: _129  and  _130
REMARK   57  A    between atoms: _132  and  _134
REMARK   58  A    between atoms: _134  and  _135
REMARK   59  A    between atoms: _137  and  _139
REMARK   60  A    between atoms: _139  and  _140
REMARK   61  A    between atoms: _139  and  _142
REMARK   62  A    between atoms: _142  and  _143
REMARK   63  A    between atoms: _146  and  _148
REMARK   64  A    between atoms: _148  and  _149
REMARK   65  A    between atoms: _151  and  _153
REMARK   66  A    between atoms: _153  and  _154
REMARK   67  A    between atoms: _156  and  _158
REMARK   68  A    between atoms: _158  and  _159
REMARK   69  A    between atoms: _158  and  _161
REMARK   70  A    between atoms: _161  and  _162
REMARK   71  A    between atoms: _168  and  _170
REMARK   72  A    between atoms: _170  and  _171
REMARK   73  A    between atoms: _170  and  _173
REMARK   74  A    between atoms: _173  and  _174
REMARK   75  A    between atoms: _177  and  _179
REMARK   76  A    between atoms: _179  and  _180
REMARK   77  A    between atoms: _179  and  _182
REMARK   78  A    between atoms: _185  and  _187
REMARK   79  A    between atoms: _187  and  _188
REMARK   80  A    between atoms: _187  and  _190
REMARK   81  A    between atoms: _190  and  _191
REMARK   82  A    between atoms: _194  and  _196
REMARK   83  A    between atoms: _196  and  _197
REMARK   84  A    between atoms: _196  and  _199
REMARK   85  A    between atoms: _199  and  _200
REMARK   86  A    between atoms: _204  and  _205
REMARK   87  A    between atoms: _210  and  _212
REMARK   88  A    between atoms: _212  and  _213
REMARK   89  A    between atoms: _212  and  _215
REMARK   90  A    between atoms: _218  and  _220
REMARK   91  A    between atoms: _220  and  _221
REMARK   92  A    between atoms: _220  and  _223
REMARK   93  A    between atoms: _223  and  _224
REMARK   94  A    between atoms: _229  and  _231
REMARK   95  A    between atoms: _231  and  _232
REMARK   96  A    between atoms: _231  and  _234
REMARK   97  A    between atoms: _234  and  _235
REMARK   98  A    between atoms: _238  and  _240
REMARK   99  A    between atoms: _240  and  _241
REMARK  100  A    between atoms: _240  and  _243
REMARK  101  A    between atoms: _243  and  _244
REMARK  102  A    between atoms: _247  and  _249
REMARK  103  A    between atoms: _249  and  _250
REMARK  104  A    between atoms: _252  and  _254
REMARK  105  A    between atoms: _254  and  _255
REMARK  106  A    between atoms: _254  and  _257
REMARK  107  A    between atoms: _257  and  _258
REMARK  108  A    between atoms: _258  and  _259
REMARK  109  A    between atoms: _259  and  _260
REMARK  110  A    between atoms: _269  and  _271
REMARK  111  A    between atoms: _271  and  _272
REMARK  112  A    between atoms: _271  and  _274
REMARK  113  A    between atoms: _274  and  _275
REMARK  114  A    between atoms: _275  and  _276
REMARK  115  A    between atoms: _276  and  _277
REMARK  116  A    between atoms: _286  and  _288
REMARK  117  A    between atoms: _288  and  _289
REMARK  118  A    between atoms: _288  and  _291
REMARK  119  A    between atoms: _291  and  _292
REMARK  120  A    between atoms: _295  and  _297
REMARK  121  A    between atoms: _297  and  _298
REMARK  122  A    between atoms: _297  and  _300
REMARK  123  A    between atoms: _300  and  _301
REMARK  124  A    between atoms: _304  and  _306
REMARK  125  A    between atoms: _306  and  _307
REMARK  126  A    between atoms: _306  and  _309
REMARK  127  A    between atoms: _309  and  _310
REMARK  128  A    between atoms: _313  and  _315
REMARK  129  A    between atoms: _315  and  _316
REMARK  130  A    between atoms: _315  and  _318
REMARK  131  A    between atoms: _318  and  _319
REMARK  132  A    between atoms: _322  and  _324
REMARK  133  A    between atoms: _324  and  _325
REMARK  134  A    between atoms: _324  and  _327
REMARK  135  A    between atoms: _327  and  _328
REMARK  136  A    between atoms: _331  and  _333
REMARK  137  A    between atoms: _333  and  _334
REMARK  138  A    between atoms: _336  and  _338
REMARK  139  A    between atoms: _338  and  _339
REMARK  140  A    between atoms: _342  and  _344
REMARK  141  A    between atoms: _344  and  _345
REMARK  142  A    between atoms: _344  and  _347
REMARK  143  A    between atoms: _347  and  _348
REMARK  144  A    between atoms: _351  and  _353
REMARK  145  A    between atoms: _353  and  _354
REMARK  146  A    between atoms: _353  and  _356
REMARK  147  A    between atoms: _356  and  _357
REMARK  148  A    between atoms: _360  and  _362
REMARK  149  A    between atoms: _362  and  _363
REMARK  150  A    between atoms: _362  and  _365
REMARK  151  A    between atoms: _365  and  _366
REMARK  152  A    between atoms: _369  and  _371
REMARK  153  A    between atoms: _371  and  _372
REMARK  154  A    between atoms: _371  and  _374
REMARK  155  A    between atoms: _377  and  _379
REMARK  156  A    between atoms: _379  and  _380
REMARK  157  A    between atoms: _379  and  _382
REMARK  158  A    between atoms: _382  and  _383
REMARK  159  A    between atoms: _383  and  _384
REMARK  160  A    between atoms: _384  and  _385
REMARK  161  A    between atoms: _385  and  _386
REMARK  162  A    between atoms: _390  and  _392
REMARK  163  A    between atoms: _392  and  _393
REMARK  164  A    between atoms: _392  and  _395
REMARK  165  A    between atoms: _395  and  _396
REMARK  166  A    between atoms: _396  and  _397
REMARK  167  A    between atoms: _399  and  _401
REMARK  168  A    between atoms: _401  and  _402
REMARK  169  A    between atoms: _401  and  _404
REMARK  170  A    between atoms: _404  and  _405
REMARK  171  A    between atoms: _408  and  _410
REMARK  172  A    between atoms: _410  and  _411
REMARK  173  A    between atoms: _413  and  _415
REMARK  174  A    between atoms: _415  and  _416
REMARK  175  A    between atoms: _418  and  _420
REMARK  176  A    between atoms: _420  and  _421
REMARK  177  A    between atoms: _420  and  _423
REMARK  178  A    between atoms: _423  and  _424
REMARK  179  A    between atoms: _427  and  _429
REMARK  180  A    between atoms: _429  and  _430
REMARK  181  A    between atoms: _432  and  _434
REMARK  182  A    between atoms: _434  and  _435
REMARK  183  A    between atoms: _437  and  _439
REMARK  184  A    between atoms: _439  and  _440
REMARK  185  A    between atoms: _439  and  _442
REMARK  186  A    between atoms: _442  and  _443
REMARK  187  A    between atoms: _449  and  _451
REMARK  188  A    between atoms: _451  and  _452
REMARK  189  A    between atoms: _451  and  _454
REMARK  190  A    between atoms: _454  and  _455
REMARK  191  A    between atoms: _458  and  _460
REMARK  192  A    between atoms: _460  and  _461
REMARK  193  A    between atoms: _460  and  _463
REMARK  194  A    between atoms: _463  and  _464
REMARK  195  A    between atoms: _467  and  _469
REMARK  196  A    between atoms: _469  and  _470
REMARK  197  A    between atoms: _469  and  _472
REMARK  198  A    between atoms: _472  and  _473
REMARK  199  A    between atoms: _477  and  _478
REMARK  200  A    between atoms: _483  and  _485
REMARK  201  A    between atoms: _485  and  _486
REMARK  202  A    between atoms: _485  and  _488
REMARK  203  A    between atoms: _491  and  _493
REMARK  204  A    between atoms: _493  and  _494
REMARK  205  A    between atoms: _493  and  _496
REMARK  206  A    between atoms: _496  and  _497
REMARK  207  A    between atoms: _502  and  _504
REMARK  208  A    between atoms: _504  and  _505
REMARK  209  A    between atoms: _504  and  _507
REMARK  210  A    between atoms: _507  and  _508
REMARK  211  A    between atoms: _511  and  _513
REMARK  212  A    between atoms: _513  and  _514
REMARK  213  A    between atoms: _513  and  _516
REMARK  214  A    between atoms: _516  and  _517
REMARK  215  A    between atoms: _520  and  _522
REMARK  216  A    between atoms: _522  and  _523
REMARK  217  A    between atoms: _525  and  _527
REMARK  218  A    between atoms: _527  and  _528
REMARK  219  A    between atoms: _527  and  _530
REMARK  220  A    between atoms: _530  and  _531
REMARK  221  A    between atoms: _531  and  _532
REMARK  222  A    between atoms: _532  and  _533
REMARK                            x       y       z     vdW  Elec       q    Type
REMARK                         _______ _______ _______ _____ _____    ______ ____
ROOT
ATOM      1  O   HOH     1       5.552  29.267   6.945  0.00  0.00    +0.000 OA
ENDROOT
TORSDOF 0
REMARK  Name = ../refined-set-2016/2bpv/2bpv_pocket.pdb
REMARK  222 active torsions:
REMARK  status: ('A' for Active; 'I' for Inactive)
REMARK    1  A    between atoms: _1  and  _3
REMARK    2  A    between atoms: _3  and  _4
REMARK    3  A    between atoms: _3  and  _6
REMARK    4  A    between atoms: _6  and  _7
REMARK    5  A    between atoms: _7  and  _8
REMARK    6  A    between atoms: _8  and  _9
REMARK    7  A    between atoms: _18  and  _20
REMARK    8  A    between atoms: _20  and  _21
REMARK    9  A    between atoms: _20  and  _23
REMARK   10  A    between atoms: _23  and  _24
REMARK   11  A    between atoms: _27  and  _29
REMARK   12  A    between atoms: _29  and  _30
REMARK   13  A    between atoms: _29  and  _32
REMARK   14  A    between atoms: _32  and  _33
REMARK   15  A    between atoms: _36  and  _38
REMARK   16  A    between atoms: _38  and  _39
REMARK   17  A    between atoms: _38  and  _41
REMARK   18  A    between atoms: _41  and  _42
REMARK   19  A    between atoms: _45  and  _47
REMARK   20  A    between atoms: _47  and  _48
REMARK   21  A    between atoms: _47  and  _50
REMARK   22  A    between atoms: _50  and  _51
REMARK   23  A    between atoms: _54  and  _56
REMARK   24  A    between atoms: _56  and  _57
REMARK   25  A    between atoms: _56  and  _59
REMARK   26  A    between atoms: _59  and  _60
REMARK   27  A    between atoms: _63  and  _65
REMARK   28  A    between atoms: _65  and  _66
REMARK   29  A    between atoms: _68  and  _70
REMARK   30  A    between atoms: _70  and  _71
REMARK   31  A    between atoms: _74  and  _76
REMARK   32  A    between atoms: _76  and  _77
REMARK   33  A    between atoms: _76  and  _79
REMARK   34  A    between atoms: _79  and  _80
REMARK   35  A    between atoms: _83  and  _85
REMARK   36  A    between atoms: _85  and  _86
REMARK   37  A    between atoms: _85  and  _88
REMARK   38  A    between atoms: _88  and  _89
REMARK   39  A    between atoms: _92  and  _94
REMARK   40  A    between atoms: _94  and  _95
REMARK   41  A    between atoms: _94  and  _97
REMARK   42  A    between atoms: _97  and  _98
REMARK   43  A    between atoms: _101  and  _103
REMARK   44  A    between atoms: _103  and  _104
REMARK   45  A    between atoms: _103  and  _106
REMARK   46  A    between atoms: _109  and  _111
REMARK   47  A    between atoms: _111  and  _112
REMARK   48  A    between atoms: _111  and  _114
REMARK   49  A    between atoms: _114  and  _115
REMARK   50  A    between atoms: _115  and  _116
REMARK   51  A    between atoms: _118  and  _120
REMARK   52  A    between atoms: _120  and  _121
REMARK   53  A    between atoms: _120  and  _123
REMARK   54  A    between atoms: _123  and  _124
REMARK   55  A    between atoms: _127  and  _129
REMARK   56  A    between atoms: _129  and  _130
REMARK   57  A    between atoms: _132  and  _134
REMARK   58  A    between atoms: _134  and  _135
REMARK   59  A    between atoms: _137  and  _139
REMARK   60  A    between atoms: _139  and  _140
REMARK   61  A    between atoms: _139  and  _142
REMARK   62  A    between atoms: _142  and  _143
REMARK   63  A    between atoms: _146  and  _148
REMARK   64  A    between atoms: _148  and  _149
REMARK   65  A    between atoms: _151  and  _153
REMARK   66  A    between atoms: _153  and  _154
REMARK   67  A    between atoms: _156  and  _158
REMARK   68  A    between atoms: _158  and  _159
REMARK   69  A    between atoms: _158  and  _161
REMARK   70  A    between atoms: _161  and  _162
REMARK   71  A    between atoms: _168  and  _170
REMARK   72  A    between atoms: _170  and  _171
REMARK   73  A    between atoms: _170  and  _173
REMARK   74  A    between atoms: _173  and  _174
REMARK   75  A    between atoms: _177  and  _179
REMARK   76  A    between atoms: _179  and  _180
REMARK   77  A    between atoms: _179  and  _182
REMARK   78  A    between atoms: _185  and  _187
REMARK   79  A    between atoms: _187  and  _188
REMARK   80  A    between atoms: _187  and  _190
REMARK   81  A    between atoms: _190  and  _191
REMARK   82  A    between atoms: _194  and  _196
REMARK   83  A    between atoms: _196  and  _197
REMARK   84  A    between atoms: _196  and  _199
REMARK   85  A    between atoms: _199  and  _200
REMARK   86  A    between atoms: _204  and  _205
REMARK   87  A    between atoms: _210  and  _212
REMARK   88  A    between atoms: _212  and  _213
REMARK   89  A    between atoms: _212  and  _215
REMARK   90  A    between atoms: _218  and  _220
REMARK   91  A    between atoms: _220  and  _221
REMARK   92  A    between atoms: _220  and  _223
REMARK   93  A    between atoms: _223  and  _224
REMARK   94  A    between atoms: _229  and  _231
REMARK   95  A    between atoms: _231  and  _232
REMARK   96  A    between atoms: _231  and  _234
REMARK   97  A    between atoms: _234  and  _235
REMARK   98  A    between atoms: _238  and  _240
REMARK   99  A    between atoms: _240  and  _241
REMARK  100  A    between atoms: _240  and  _243
REMARK  101  A    between atoms: _243  and  _244
REMARK  102  A    between atoms: _247  and  _249
REMARK  103  A    between atoms: _249  and  _250
REMARK  104  A    between atoms: _252  and  _254
REMARK  105  A    between atoms: _254  and  _255
REMARK  106  A    between atoms: _254  and  _257
REMARK  107  A    between atoms: _257  and  _258
REMARK  108  A    between atoms: _258  and  _259
REMARK  109  A    between atoms: _259  and  _260
REMARK  110  A    between atoms: _269  and  _271
REMARK  111  A    between atoms: _271  and  _272
REMARK  112  A    between atoms: _271  and  _274
REMARK  113  A    between atoms: _274  and  _275
REMARK  114  A    between atoms: _275  and  _276
REMARK  115  A    between atoms: _276  and  _277
REMARK  116  A    between atoms: _286  and  _288
REMARK  117  A    between atoms: _288  and  _289
REMARK  118  A    between atoms: _288  and  _291
REMARK  119  A    between atoms: _291  and  _292
REMARK  120  A    between atoms: _295  and  _297
REMARK  121  A    between atoms: _297  and  _298
REMARK  122  A    between atoms: _297  and  _300
REMARK  123  A    between atoms: _300  and  _301
REMARK  124  A    between atoms: _304  and  _306
REMARK  125  A    between atoms: _306  and  _307
REMARK  126  A    between atoms: _306  and  _309
REMARK  127  A    between atoms: _309  and  _310
REMARK  128  A    between atoms: _313  and  _315
REMARK  129  A    between atoms: _315  and  _316
REMARK  130  A    between atoms: _315  and  _318
REMARK  131  A    between atoms: _318  and  _319
REMARK  132  A    between atoms: _322  and  _324
REMARK  133  A    between atoms: _324  and  _325
REMARK  134  A    between atoms: _324  and  _327
REMARK  135  A    between atoms: _327  and  _328
REMARK  136  A    between atoms: _331  and  _333
REMARK  137  A    between atoms: _333  and  _334
REMARK  138  A    between atoms: _336  and  _338
REMARK  139  A    between atoms: _338  and  _339
REMARK  140  A    between atoms: _342  and  _344
REMARK  141  A    between atoms: _344  and  _345
REMARK  142  A    between atoms: _344  and  _347
REMARK  143  A    between atoms: _347  and  _348
REMARK  144  A    between atoms: _351  and  _353
REMARK  145  A    between atoms: _353  and  _354
REMARK  146  A    between atoms: _353  and  _356
REMARK  147  A    between atoms: _356  and  _357
REMARK  148  A    between atoms: _360  and  _362
REMARK  149  A    between atoms: _362  and  _363
REMARK  150  A    between atoms: _362  and  _365
REMARK  151  A    between atoms: _365  and  _366
REMARK  152  A    between atoms: _369  and  _371
REMARK  153  A    between atoms: _371  and  _372
REMARK  154  A    between atoms: _371  and  _374
REMARK  155  A    between atoms: _377  and  _379
REMARK  156  A    between atoms: _379  and  _380
REMARK  157  A    between atoms: _379  and  _382
REMARK  158  A    between atoms: _382  and  _383
REMARK  159  A    between atoms: _383  and  _384
REMARK  160  A    between atoms: _384  and  _385
REMARK  161  A    between atoms: _385  and  _386
REMARK  162  A    between atoms: _390  and  _392
REMARK  163  A    between atoms: _392  and  _393
REMARK  164  A    between atoms: _392  and  _395
REMARK  165  A    between atoms: _395  and  _396
REMARK  166  A    between atoms: _396  and  _397
REMARK  167  A    between atoms: _399  and  _401
REMARK  168  A    between atoms: _401  and  _402
REMARK  169  A    between atoms: _401  and  _404
REMARK  170  A    between atoms: _404  and  _405
REMARK  171  A    between atoms: _408  and  _410
REMARK  172  A    between atoms: _410  and  _411
REMARK  173  A    between atoms: _413  and  _415
REMARK  174  A    between atoms: _415  and  _416
REMARK  175  A    between atoms: _418  and  _420
REMARK  176  A    between atoms: _420  and  _421
REMARK  177  A    between atoms: _420  and  _423
REMARK  178  A    between atoms: _423  and  _424
REMARK  179  A    between atoms: _427  and  _429
REMARK  180  A    between atoms: _429  and  _430
REMARK  181  A    between atoms: _432  and  _434
REMARK  182  A    between atoms: _434  and  _435
REMARK  183  A    between atoms: _437  and  _439
REMARK  184  A    between atoms: _439  and  _440
REMARK  185  A    between atoms: _439  and  _442
REMARK  186  A    between atoms: _442  and  _443
REMARK  187  A    between atoms: _449  and  _451
REMARK  188  A    between atoms: _451  and  _452
REMARK  189  A    between atoms: _451  and  _454
REMARK  190  A    between atoms: _454  and  _455
REMARK  191  A    between atoms: _458  and  _460
REMARK  192  A    between atoms: _460  and  _461
REMARK  193  A    between atoms: _460  and  _463
REMARK  194  A    between atoms: _463  and  _464
REMARK  195  A    between atoms: _467  and  _469
REMARK  196  A    between atoms: _469  and  _470
REMARK  197  A    between atoms: _469  and  _472
REMARK  198  A    between atoms: _472  and  _473
REMARK  199  A    between atoms: _477  and  _478
REMARK  200  A    between atoms: _483  and  _485
REMARK  201  A    between atoms: _485  and  _486
REMARK  202  A    between atoms: _485  and  _488
REMARK  203  A    between atoms: _491  and  _493
REMARK  204  A    between atoms: _493  and  _494
REMARK  205  A    between atoms: _493  and  _496
REMARK  206  A    between atoms: _496  and  _497
REMARK  207  A    between atoms: _502  and  _504
REMARK  208  A    between atoms: _504  and  _505
REMARK  209  A    between atoms: _504  and  _507
REMARK  210  A    between atoms: _507  and  _508
REMARK  211  A    between atoms: _511  and  _513
REMARK  212  A    between atoms: _513  and  _514
REMARK  213  A    between atoms: _513  and  _516
REMARK  214  A    between atoms: _516  and  _517
REMARK  215  A    between atoms: _520  and  _522
REMARK  216  A    between atoms: _522  and  _523
REMARK  217  A    between atoms: _525  and  _527
REMARK  218  A    between atoms: _527  and  _528
REMARK  219  A    between atoms: _527  and  _530
REMARK  220  A    between atoms: _530  and  _531
REMARK  221  A    between atoms: _531  and  _532
REMARK  222  A    between atoms: _532  and  _533
REMARK                            x       y       z     vdW  Elec       q    Type
REMARK                         _______ _______ _______ _____ _____    ______ ____
ROOT
ATOM      1  O   HOH     1       4.316  30.741   5.101  0.00  0.00    +0.000 OA
ENDROOT
TORSDOF 0
REMARK  Name = ../refined-set-2016/2bpv/2bpv_pocket.pdb
REMARK  222 active torsions:
REMARK  status: ('A' for Active; 'I' for Inactive)
REMARK    1  A    between atoms: _1  and  _3
REMARK    2  A    between atoms: _3  and  _4
REMARK    3  A    between atoms: _3  and  _6
REMARK    4  A    between atoms: _6  and  _7
REMARK    5  A    between atoms: _7  and  _8
REMARK    6  A    between atoms: _8  and  _9
REMARK    7  A    between atoms: _18  and  _20
REMARK    8  A    between atoms: _20  and  _21
REMARK    9  A    between atoms: _20  and  _23
REMARK   10  A    between atoms: _23  and  _24
REMARK   11  A    between atoms: _27  and  _29
REMARK   12  A    between atoms: _29  and  _30
REMARK   13  A    between atoms: _29  and  _32
REMARK   14  A    between atoms: _32  and  _33
REMARK   15  A    between atoms: _36  and  _38
REMARK   16  A    between atoms: _38  and  _39
REMARK   17  A    between atoms: _38  and  _41
REMARK   18  A    between atoms: _41  and  _42
REMARK   19  A    between atoms: _45  and  _47
REMARK   20  A    between atoms: _47  and  _48
REMARK   21  A    between atoms: _47  and  _50
REMARK   22  A    between atoms: _50  and  _51
REMARK   23  A    between atoms: _54  and  _56
REMARK   24  A    between atoms: _56  and  _57
REMARK   25  A    between atoms: _56  and  _59
REMARK   26  A    between atoms: _59  and  _60
REMARK   27  A    between atoms: _63  and  _65
REMARK   28  A    between atoms: _65  and  _66
REMARK   29  A    between atoms: _68  and  _70
REMARK   30  A    between atoms: _70  and  _71
REMARK   31  A    between atoms: _74  and  _76
REMARK   32  A    between atoms: _76  and  _77
REMARK   33  A    between atoms: _76  and  _79
REMARK   34  A    between atoms: _79  and  _80
REMARK   35  A    between atoms: _83  and  _85
REMARK   36  A    between atoms: _85  and  _86
REMARK   37  A    between atoms: _85  and  _88
REMARK   38  A    between atoms: _88  and  _89
REMARK   39  A    between atoms: _92  and  _94
REMARK   40  A    between atoms: _94  and  _95
REMARK   41  A    between atoms: _94  and  _97
REMARK   42  A    between atoms: _97  and  _98
REMARK   43  A    between atoms: _101  and  _103
REMARK   44  A    between atoms: _103  and  _104
REMARK   45  A    between atoms: _103  and  _106
REMARK   46  A    between atoms: _109  and  _111
REMARK   47  A    between atoms: _111  and  _112
REMARK   48  A    between atoms: _111  and  _114
REMARK   49  A    between atoms: _114  and  _115
REMARK   50  A    between atoms: _115  and  _116
REMARK   51  A    between atoms: _118  and  _120
REMARK   52  A    between atoms: _120  and  _121
REMARK   53  A    between atoms: _120  and  _123
REMARK   54  A    between atoms: _123  and  _124
REMARK   55  A    between atoms: _127  and  _129
REMARK   56  A    between atoms: _129  and  _130
REMARK   57  A    between atoms: _132  and  _134
REMARK   58  A    between atoms: _134  and  _135
REMARK   59  A    between atoms: _137  and  _139
REMARK   60  A    between atoms: _139  and  _140
REMARK   61  A    between atoms: _139  and  _142
REMARK   62  A    between atoms: _142  and  _143
REMARK   63  A    between atoms: _146  and  _148
REMARK   64  A    between atoms: _148  and  _149
REMARK   65  A    between atoms: _151  and  _153
REMARK   66  A    between atoms: _153  and  _154
REMARK   67  A    between atoms: _156  and  _158
REMARK   68  A    between atoms: _158  and  _159
REMARK   69  A    between atoms: _158  and  _161
REMARK   70  A    between atoms: _161  and  _162
REMARK   71  A    between atoms: _168  and  _170
REMARK   72  A    between atoms: _170  and  _171
REMARK   73  A    between atoms: _170  and  _173
REMARK   74  A    between atoms: _173  and  _174
REMARK   75  A    between atoms: _177  and  _179
REMARK   76  A    between atoms: _179  and  _180
REMARK   77  A    between atoms: _179  and  _182
REMARK   78  A    between atoms: _185  and  _187
REMARK   79  A    between atoms: _187  and  _188
REMARK   80  A    between atoms: _187  and  _190
REMARK   81  A    between atoms: _190  and  _191
REMARK   82  A    between atoms: _194  and  _196
REMARK   83  A    between atoms: _196  and  _197
REMARK   84  A    between atoms: _196  and  _199
REMARK   85  A    between atoms: _199  and  _200
REMARK   86  A    between atoms: _204  and  _205
REMARK   87  A    between atoms: _210  and  _212
REMARK   88  A    between atoms: _212  and  _213
REMARK   89  A    between atoms: _212  and  _215
REMARK   90  A    between atoms: _218  and  _220
REMARK   91  A    between atoms: _220  and  _221
REMARK   92  A    between atoms: _220  and  _223
REMARK   93  A    between atoms: _223  and  _224
REMARK   94  A    between atoms: _229  and  _231
REMARK   95  A    between atoms: _231  and  _232
REMARK   96  A    between atoms: _231  and  _234
REMARK   97  A    between atoms: _234  and  _235
REMARK   98  A    between atoms: _238  and  _240
REMARK   99  A    between atoms: _240  and  _241
REMARK  100  A    between atoms: _240  and  _243
REMARK  101  A    between atoms: _243  and  _244
REMARK  102  A    between atoms: _247  and  _249
REMARK  103  A    between atoms: _249  and  _250
REMARK  104  A    between atoms: _252  and  _254
REMARK  105  A    between atoms: _254  and  _255
REMARK  106  A    between atoms: _254  and  _257
REMARK  107  A    between atoms: _257  and  _258
REMARK  108  A    between atoms: _258  and  _259
REMARK  109  A    between atoms: _259  and  _260
REMARK  110  A    between atoms: _269  and  _271
REMARK  111  A    between atoms: _271  and  _272
REMARK  112  A    between atoms: _271  and  _274
REMARK  113  A    between atoms: _274  and  _275
REMARK  114  A    between atoms: _275  and  _276
REMARK  115  A    between atoms: _276  and  _277
REMARK  116  A    between atoms: _286  and  _288
REMARK  117  A    between atoms: _288  and  _289
REMARK  118  A    between atoms: _288  and  _291
REMARK  119  A    between atoms: _291  and  _292
REMARK  120  A    between atoms: _295  and  _297
REMARK  121  A    between atoms: _297  and  _298
REMARK  122  A    between atoms: _297  and  _300
REMARK  123  A    between atoms: _300  and  _301
REMARK  124  A    between atoms: _304  and  _306
REMARK  125  A    between atoms: _306  and  _307
REMARK  126  A    between atoms: _306  and  _309
REMARK  127  A    between atoms: _309  and  _310
REMARK  128  A    between atoms: _313  and  _315
REMARK  129  A    between atoms: _315  and  _316
REMARK  130  A    between atoms: _315  and  _318
REMARK  131  A    between atoms: _318  and  _319
REMARK  132  A    between atoms: _322  and  _324
REMARK  133  A    between atoms: _324  and  _325
REMARK  134  A    between atoms: _324  and  _327
REMARK  135  A    between atoms: _327  and  _328
REMARK  136  A    between atoms: _331  and  _333
REMARK  137  A    between atoms: _333  and  _334
REMARK  138  A    between atoms: _336  and  _338
REMARK  139  A    between atoms: _338  and  _339
REMARK  140  A    between atoms: _342  and  _344
REMARK  141  A    between atoms: _344  and  _345
REMARK  142  A    between atoms: _344  and  _347
REMARK  143  A    between atoms: _347  and  _348
REMARK  144  A    between atoms: _351  and  _353
REMARK  145  A    between atoms: _353  and  _354
REMARK  146  A    between atoms: _353  and  _356
REMARK  147  A    between atoms: _356  and  _357
REMARK  148  A    between atoms: _360  and  _362
REMARK  149  A    between atoms: _362  and  _363
REMARK  150  A    between atoms: _362  and  _365
REMARK  151  A    between atoms: _365  and  _366
REMARK  152  A    between atoms: _369  and  _371
REMARK  153  A    between atoms: _371  and  _372
REMARK  154  A    between atoms: _371  and  _374
REMARK  155  A    between atoms: _377  and  _379
REMARK  156  A    between atoms: _379  and  _380
REMARK  157  A    between atoms: _379  and  _382
REMARK  158  A    between atoms: _382  and  _383
REMARK  159  A    between atoms: _383  and  _384
REMARK  160  A    between atoms: _384  and  _385
REMARK  161  A    between atoms: _385  and  _386
REMARK  162  A    between atoms: _390  and  _392
REMARK  163  A    between atoms: _392  and  _393
REMARK  164  A    between atoms: _392  and  _395
REMARK  165  A    between atoms: _395  and  _396
REMARK  166  A    between atoms: _396  and  _397
REMARK  167  A    between atoms: _399  and  _401
REMARK  168  A    between atoms: _401  and  _402
REMARK  169  A    between atoms: _401  and  _404
REMARK  170  A    between atoms: _404  and  _405
REMARK  171  A    between atoms: _408  and  _410
REMARK  172  A    between atoms: _410  and  _411
REMARK  173  A    between atoms: _413  and  _415
REMARK  174  A    between atoms: _415  and  _416
REMARK  175  A    between atoms: _418  and  _420
REMARK  176  A    between atoms: _420  and  _421
REMARK  177  A    between atoms: _420  and  _423
REMARK  178  A    between atoms: _423  and  _424
REMARK  179  A    between atoms: _427  and  _429
REMARK  180  A    between atoms: _429  and  _430
REMARK  181  A    between atoms: _432  and  _434
REMARK  182  A    between atoms: _434  and  _435
REMARK  183  A    between atoms: _437  and  _439
REMARK  184  A    between atoms: _439  and  _440
REMARK  185  A    between atoms: _439  and  _442
REMARK  186  A    between atoms: _442  and  _443
REMARK  187  A    between atoms: _449  and  _451
REMARK  188  A    between atoms: _451  and  _452
REMARK  189  A    between atoms: _451  and  _454
REMARK  190  A    between atoms: _454  and  _455
REMARK  191  A    between atoms: _458  and  _460
REMARK  192  A    between atoms: _460  and  _461
REMARK  193  A    between atoms: _460  and  _463
REMARK  194  A    between atoms: _463  and  _464
REMARK  195  A    between atoms: _467  and  _469
REMARK  196  A    between atoms: _469  and  _470
REMARK  197  A    between atoms: _469  and  _472
REMARK  198  A    between atoms: _472  and  _473
REMARK  199  A    between atoms: _477  and  _478
REMARK  200  A    between atoms: _483  and  _485
REMARK  201  A    between atoms: _485  and  _486
REMARK  202  A    between atoms: _485  and  _488
REMARK  203  A    between atoms: _491  and  _493
REMARK  204  A    between atoms: _493  and  _494
REMARK  205  A    between atoms: _493  and  _496
REMARK  206  A    between atoms: _496  and  _497
REMARK  207  A    between atoms: _502  and  _504
REMARK  208  A    between atoms: _504  and  _505
REMARK  209  A    between atoms: _504  and  _507
REMARK  210  A    between atoms: _507  and  _508
REMARK  211  A    between atoms: _511  and  _513
REMARK  212  A    between atoms: _513  and  _514
REMARK  213  A    between atoms: _513  and  _516
REMARK  214  A    between atoms: _516  and  _517
REMARK  215  A    between atoms: _520  and  _522
REMARK  216  A    between atoms: _522  and  _523
REMARK  217  A    between atoms: _525  and  _527
REMARK  218  A    between atoms: _527  and  _528
REMARK  219  A    between atoms: _527  and  _530
REMARK  220  A    between atoms: _530  and  _531
REMARK  221  A    between atoms: _531  and  _532
REMARK  222  A    between atoms: _532  and  _533
REMARK                            x       y       z     vdW  Elec       q    Type
REMARK                         _______ _______ _______ _____ _____    ______ ____
ROOT
ATOM      1  O   HOH     1       5.043  33.927   6.815  0.00  0.00    +0.000 OA
ENDROOT
TORSDOF 0
REMARK  Name = ../refined-set-2016/2bpv/2bpv_pocket.pdb
REMARK  222 active torsions:
REMARK  status: ('A' for Active; 'I' for Inactive)
REMARK    1  A    between atoms: _1  and  _3
REMARK    2  A    between atoms: _3  and  _4
REMARK    3  A    between atoms: _3  and  _6
REMARK    4  A    between atoms: _6  and  _7
REMARK    5  A    between atoms: _7  and  _8
REMARK    6  A    between atoms: _8  and  _9
REMARK    7  A    between atoms: _18  and  _20
REMARK    8  A    between atoms: _20  and  _21
REMARK    9  A    between atoms: _20  and  _23
REMARK   10  A    between atoms: _23  and  _24
REMARK   11  A    between atoms: _27  and  _29
REMARK   12  A    between atoms: _29  and  _30
REMARK   13  A    between atoms: _29  and  _32
REMARK   14  A    between atoms: _32  and  _33
REMARK   15  A    between atoms: _36  and  _38
REMARK   16  A    between atoms: _38  and  _39
REMARK   17  A    between atoms: _38  and  _41
REMARK   18  A    between atoms: _41  and  _42
REMARK   19  A    between atoms: _45  and  _47
REMARK   20  A    between atoms: _47  and  _48
REMARK   21  A    between atoms: _47  and  _50
REMARK   22  A    between atoms: _50  and  _51
REMARK   23  A    between atoms: _54  and  _56
REMARK   24  A    between atoms: _56  and  _57
REMARK   25  A    between atoms: _56  and  _59
REMARK   26  A    between atoms: _59  and  _60
REMARK   27  A    between atoms: _63  and  _65
REMARK   28  A    between atoms: _65  and  _66
REMARK   29  A    between atoms: _68  and  _70
REMARK   30  A    between atoms: _70  and  _71
REMARK   31  A    between atoms: _74  and  _76
REMARK   32  A    between atoms: _76  and  _77
REMARK   33  A    between atoms: _76  and  _79
REMARK   34  A    between atoms: _79  and  _80
REMARK   35  A    between atoms: _83  and  _85
REMARK   36  A    between atoms: _85  and  _86
REMARK   37  A    between atoms: _85  and  _88
REMARK   38  A    between atoms: _88  and  _89
REMARK   39  A    between atoms: _92  and  _94
REMARK   40  A    between atoms: _94  and  _95
REMARK   41  A    between atoms: _94  and  _97
REMARK   42  A    between atoms: _97  and  _98
REMARK   43  A    between atoms: _101  and  _103
REMARK   44  A    between atoms: _103  and  _104
REMARK   45  A    between atoms: _103  and  _106
REMARK   46  A    between atoms: _109  and  _111
REMARK   47  A    between atoms: _111  and  _112
REMARK   48  A    between atoms: _111  and  _114
REMARK   49  A    between atoms: _114  and  _115
REMARK   50  A    between atoms: _115  and  _116
REMARK   51  A    between atoms: _118  and  _120
REMARK   52  A    between atoms: _120  and  _121
REMARK   53  A    between atoms: _120  and  _123
REMARK   54  A    between atoms: _123  and  _124
REMARK   55  A    between atoms: _127  and  _129
REMARK   56  A    between atoms: _129  and  _130
REMARK   57  A    between atoms: _132  and  _134
REMARK   58  A    between atoms: _134  and  _135
REMARK   59  A    between atoms: _137  and  _139
REMARK   60  A    between atoms: _139  and  _140
REMARK   61  A    between atoms: _139  and  _142
REMARK   62  A    between atoms: _142  and  _143
REMARK   63  A    between atoms: _146  and  _148
REMARK   64  A    between atoms: _148  and  _149
REMARK   65  A    between atoms: _151  and  _153
REMARK   66  A    between atoms: _153  and  _154
REMARK   67  A    between atoms: _156  and  _158
REMARK   68  A    between atoms: _158  and  _159
REMARK   69  A    between atoms: _158  and  _161
REMARK   70  A    between atoms: _161  and  _162
REMARK   71  A    between atoms: _168  and  _170
REMARK   72  A    between atoms: _170  and  _171
REMARK   73  A    between atoms: _170  and  _173
REMARK   74  A    between atoms: _173  and  _174
REMARK   75  A    between atoms: _177  and  _179
REMARK   76  A    between atoms: _179  and  _180
REMARK   77  A    between atoms: _179  and  _182
REMARK   78  A    between atoms: _185  and  _187
REMARK   79  A    between atoms: _187  and  _188
REMARK   80  A    between atoms: _187  and  _190
REMARK   81  A    between atoms: _190  and  _191
REMARK   82  A    between atoms: _194  and  _196
REMARK   83  A    between atoms: _196  and  _197
REMARK   84  A    between atoms: _196  and  _199
REMARK   85  A    between atoms: _199  and  _200
REMARK   86  A    between atoms: _204  and  _205
REMARK   87  A    between atoms: _210  and  _212
REMARK   88  A    between atoms: _212  and  _213
REMARK   89  A    between atoms: _212  and  _215
REMARK   90  A    between atoms: _218  and  _220
REMARK   91  A    between atoms: _220  and  _221
REMARK   92  A    between atoms: _220  and  _223
REMARK   93  A    between atoms: _223  and  _224
REMARK   94  A    between atoms: _229  and  _231
REMARK   95  A    between atoms: _231  and  _232
REMARK   96  A    between atoms: _231  and  _234
REMARK   97  A    between atoms: _234  and  _235
REMARK   98  A    between atoms: _238  and  _240
REMARK   99  A    between atoms: _240  and  _241
REMARK  100  A    between atoms: _240  and  _243
REMARK  101  A    between atoms: _243  and  _244
REMARK  102  A    between atoms: _247  and  _249
REMARK  103  A    between atoms: _249  and  _250
REMARK  104  A    between atoms: _252  and  _254
REMARK  105  A    between atoms: _254  and  _255
REMARK  106  A    between atoms: _254  and  _257
REMARK  107  A    between atoms: _257  and  _258
REMARK  108  A    between atoms: _258  and  _259
REMARK  109  A    between atoms: _259  and  _260
REMARK  110  A    between atoms: _269  and  _271
REMARK  111  A    between atoms: _271  and  _272
REMARK  112  A    between atoms: _271  and  _274
REMARK  113  A    between atoms: _274  and  _275
REMARK  114  A    between atoms: _275  and  _276
REMARK  115  A    between atoms: _276  and  _277
REMARK  116  A    between atoms: _286  and  _288
REMARK  117  A    between atoms: _288  and  _289
REMARK  118  A    between atoms: _288  and  _291
REMARK  119  A    between atoms: _291  and  _292
REMARK  120  A    between atoms: _295  and  _297
REMARK  121  A    between atoms: _297  and  _298
REMARK  122  A    between atoms: _297  and  _300
REMARK  123  A    between atoms: _300  and  _301
REMARK  124  A    between atoms: _304  and  _306
REMARK  125  A    between atoms: _306  and  _307
REMARK  126  A    between atoms: _306  and  _309
REMARK  127  A    between atoms: _309  and  _310
REMARK  128  A    between atoms: _313  and  _315
REMARK  129  A    between atoms: _315  and  _316
REMARK  130  A    between atoms: _315  and  _318
REMARK  131  A    between atoms: _318  and  _319
REMARK  132  A    between atoms: _322  and  _324
REMARK  133  A    between atoms: _324  and  _325
REMARK  134  A    between atoms: _324  and  _327
REMARK  135  A    between atoms: _327  and  _328
REMARK  136  A    between atoms: _331  and  _333
REMARK  137  A    between atoms: _333  and  _334
REMARK  138  A    between atoms: _336  and  _338
REMARK  139  A    between atoms: _338  and  _339
REMARK  140  A    between atoms: _342  and  _344
REMARK  141  A    between atoms: _344  and  _345
REMARK  142  A    between atoms: _344  and  _347
REMARK  143  A    between atoms: _347  and  _348
REMARK  144  A    between atoms: _351  and  _353
REMARK  145  A    between atoms: _353  and  _354
REMARK  146  A    between atoms: _353  and  _356
REMARK  147  A    between atoms: _356  and  _357
REMARK  148  A    between atoms: _360  and  _362
REMARK  149  A    between atoms: _362  and  _363
REMARK  150  A    between atoms: _362  and  _365
REMARK  151  A    between atoms: _365  and  _366
REMARK  152  A    between atoms: _369  and  _371
REMARK  153  A    between atoms: _371  and  _372
REMARK  154  A    between atoms: _371  and  _374
REMARK  155  A    between atoms: _377  and  _379
REMARK  156  A    between atoms: _379  and  _380
REMARK  157  A    between atoms: _379  and  _382
REMARK  158  A    between atoms: _382  and  _383
REMARK  159  A    between atoms: _383  and  _384
REMARK  160  A    between atoms: _384  and  _385
REMARK  161  A    between atoms: _385  and  _386
REMARK  162  A    between atoms: _390  and  _392
REMARK  163  A    between atoms: _392  and  _393
REMARK  164  A    between atoms: _392  and  _395
REMARK  165  A    between atoms: _395  and  _396
REMARK  166  A    between atoms: _396  and  _397
REMARK  167  A    between atoms: _399  and  _401
REMARK  168  A    between atoms: _401  and  _402
REMARK  169  A    between atoms: _401  and  _404
REMARK  170  A    between atoms: _404  and  _405
REMARK  171  A    between atoms: _408  and  _410
REMARK  172  A    between atoms: _410  and  _411
REMARK  173  A    between atoms: _413  and  _415
REMARK  174  A    between atoms: _415  and  _416
REMARK  175  A    between atoms: _418  and  _420
REMARK  176  A    between atoms: _420  and  _421
REMARK  177  A    between atoms: _420  and  _423
REMARK  178  A    between atoms: _423  and  _424
REMARK  179  A    between atoms: _427  and  _429
REMARK  180  A    between atoms: _429  and  _430
REMARK  181  A    between atoms: _432  and  _434
REMARK  182  A    between atoms: _434  and  _435
REMARK  183  A    between atoms: _437  and  _439
REMARK  184  A    between atoms: _439  and  _440
REMARK  185  A    between atoms: _439  and  _442
REMARK  186  A    between atoms: _442  and  _443
REMARK  187  A    between atoms: _449  and  _451
REMARK  188  A    between atoms: _451  and  _452
REMARK  189  A    between atoms: _451  and  _454
REMARK  190  A    between atoms: _454  and  _455
REMARK  191  A    between atoms: _458  and  _460
REMARK  192  A    between atoms: _460  and  _461
REMARK  193  A    between atoms: _460  and  _463
REMARK  194  A    between atoms: _463  and  _464
REMARK  195  A    between atoms: _467  and  _469
REMARK  196  A    between atoms: _469  and  _470
REMARK  197  A    between atoms: _469  and  _472
REMARK  198  A    between atoms: _472  and  _473
REMARK  199  A    between atoms: _477  and  _478
REMARK  200  A    between atoms: _483  and  _485
REMARK  201  A    between atoms: _485  and  _486
REMARK  202  A    between atoms: _485  and  _488
REMARK  203  A    between atoms: _491  and  _493
REMARK  204  A    between atoms: _493  and  _494
REMARK  205  A    between atoms: _493  and  _496
REMARK  206  A    between atoms: _496  and  _497
REMARK  207  A    between atoms: _502  and  _504
REMARK  208  A    between atoms: _504  and  _505
REMARK  209  A    between atoms: _504  and  _507
REMARK  210  A    between atoms: _507  and  _508
REMARK  211  A    between atoms: _511  and  _513
REMARK  212  A    between atoms: _513  and  _514
REMARK  213  A    between atoms: _513  and  _516
REMARK  214  A    between atoms: _516  and  _517
REMARK  215  A    between atoms: _520  and  _522
REMARK  216  A    between atoms: _522  and  _523
REMARK  217  A    between atoms: _525  and  _527
REMARK  218  A    between atoms: _527  and  _528
REMARK  219  A    between atoms: _527  and  _530
REMARK  220  A    between atoms: _530  and  _531
REMARK  221  A    between atoms: _531  and  _532
REMARK  222  A    between atoms: _532  and  _533
REMARK                            x       y       z     vdW  Elec       q    Type
REMARK                         _______ _______ _______ _____ _____    ______ ____
ROOT
ATOM      1  O   HOH     1       8.840  34.030  12.204  0.00  0.00    +0.000 OA
ENDROOT
TORSDOF 0
REMARK  Name = ../refined-set-2016/2bpv/2bpv_pocket.pdb
REMARK  222 active torsions:
REMARK  status: ('A' for Active; 'I' for Inactive)
REMARK    1  A    between atoms: _1  and  _3
REMARK    2  A    between atoms: _3  and  _4
REMARK    3  A    between atoms: _3  and  _6
REMARK    4  A    between atoms: _6  and  _7
REMARK    5  A    between atoms: _7  and  _8
REMARK    6  A    between atoms: _8  and  _9
REMARK    7  A    between atoms: _18  and  _20
REMARK    8  A    between atoms: _20  and  _21
REMARK    9  A    between atoms: _20  and  _23
REMARK   10  A    between atoms: _23  and  _24
REMARK   11  A    between atoms: _27  and  _29
REMARK   12  A    between atoms: _29  and  _30
REMARK   13  A    between atoms: _29  and  _32
REMARK   14  A    between atoms: _32  and  _33
REMARK   15  A    between atoms: _36  and  _38
REMARK   16  A    between atoms: _38  and  _39
REMARK   17  A    between atoms: _38  and  _41
REMARK   18  A    between atoms: _41  and  _42
REMARK   19  A    between atoms: _45  and  _47
REMARK   20  A    between atoms: _47  and  _48
REMARK   21  A    between atoms: _47  and  _50
REMARK   22  A    between atoms: _50  and  _51
REMARK   23  A    between atoms: _54  and  _56
REMARK   24  A    between atoms: _56  and  _57
REMARK   25  A    between atoms: _56  and  _59
REMARK   26  A    between atoms: _59  and  _60
REMARK   27  A    between atoms: _63  and  _65
REMARK   28  A    between atoms: _65  and  _66
REMARK   29  A    between atoms: _68  and  _70
REMARK   30  A    between atoms: _70  and  _71
REMARK   31  A    between atoms: _74  and  _76
REMARK   32  A    between atoms: _76  and  _77
REMARK   33  A    between atoms: _76  and  _79
REMARK   34  A    between atoms: _79  and  _80
REMARK   35  A    between atoms: _83  and  _85
REMARK   36  A    between atoms: _85  and  _86
REMARK   37  A    between atoms: _85  and  _88
REMARK   38  A    between atoms: _88  and  _89
REMARK   39  A    between atoms: _92  and  _94
REMARK   40  A    between atoms: _94  and  _95
REMARK   41  A    between atoms: _94  and  _97
REMARK   42  A    between atoms: _97  and  _98
REMARK   43  A    between atoms: _101  and  _103
REMARK   44  A    between atoms: _103  and  _104
REMARK   45  A    between atoms: _103  and  _106
REMARK   46  A    between atoms: _109  and  _111
REMARK   47  A    between atoms: _111  and  _112
REMARK   48  A    between atoms: _111  and  _114
REMARK   49  A    between atoms: _114  and  _115
REMARK   50  A    between atoms: _115  and  _116
REMARK   51  A    between atoms: _118  and  _120
REMARK   52  A    between atoms: _120  and  _121
REMARK   53  A    between atoms: _120  and  _123
REMARK   54  A    between atoms: _123  and  _124
REMARK   55  A    between atoms: _127  and  _129
REMARK   56  A    between atoms: _129  and  _130
REMARK   57  A    between atoms: _132  and  _134
REMARK   58  A    between atoms: _134  and  _135
REMARK   59  A    between atoms: _137  and  _139
REMARK   60  A    between atoms: _139  and  _140
REMARK   61  A    between atoms: _139  and  _142
REMARK   62  A    between atoms: _142  and  _143
REMARK   63  A    between atoms: _146  and  _148
REMARK   64  A    between atoms: _148  and  _149
REMARK   65  A    between atoms: _151  and  _153
REMARK   66  A    between atoms: _153  and  _154
REMARK   67  A    between atoms: _156  and  _158
REMARK   68  A    between atoms: _158  and  _159
REMARK   69  A    between atoms: _158  and  _161
REMARK   70  A    between atoms: _161  and  _162
REMARK   71  A    between atoms: _168  and  _170
REMARK   72  A    between atoms: _170  and  _171
REMARK   73  A    between atoms: _170  and  _173
REMARK   74  A    between atoms: _173  and  _174
REMARK   75  A    between atoms: _177  and  _179
REMARK   76  A    between atoms: _179  and  _180
REMARK   77  A    between atoms: _179  and  _182
REMARK   78  A    between atoms: _185  and  _187
REMARK   79  A    between atoms: _187  and  _188
REMARK   80  A    between atoms: _187  and  _190
REMARK   81  A    between atoms: _190  and  _191
REMARK   82  A    between atoms: _194  and  _196
REMARK   83  A    between atoms: _196  and  _197
REMARK   84  A    between atoms: _196  and  _199
REMARK   85  A    between atoms: _199  and  _200
REMARK   86  A    between atoms: _204  and  _205
REMARK   87  A    between atoms: _210  and  _212
REMARK   88  A    between atoms: _212  and  _213
REMARK   89  A    between atoms: _212  and  _215
REMARK   90  A    between atoms: _218  and  _220
REMARK   91  A    between atoms: _220  and  _221
REMARK   92  A    between atoms: _220  and  _223
REMARK   93  A    between atoms: _223  and  _224
REMARK   94  A    between atoms: _229  and  _231
REMARK   95  A    between atoms: _231  and  _232
REMARK   96  A    between atoms: _231  and  _234
REMARK   97  A    between atoms: _234  and  _235
REMARK   98  A    between atoms: _238  and  _240
REMARK   99  A    between atoms: _240  and  _241
REMARK  100  A    between atoms: _240  and  _243
REMARK  101  A    between atoms: _243  and  _244
REMARK  102  A    between atoms: _247  and  _249
REMARK  103  A    between atoms: _249  and  _250
REMARK  104  A    between atoms: _252  and  _254
REMARK  105  A    between atoms: _254  and  _255
REMARK  106  A    between atoms: _254  and  _257
REMARK  107  A    between atoms: _257  and  _258
REMARK  108  A    between atoms: _258  and  _259
REMARK  109  A    between atoms: _259  and  _260
REMARK  110  A    between atoms: _269  and  _271
REMARK  111  A    between atoms: _271  and  _272
REMARK  112  A    between atoms: _271  and  _274
REMARK  113  A    between atoms: _274  and  _275
REMARK  114  A    between atoms: _275  and  _276
REMARK  115  A    between atoms: _276  and  _277
REMARK  116  A    between atoms: _286  and  _288
REMARK  117  A    between atoms: _288  and  _289
REMARK  118  A    between atoms: _288  and  _291
REMARK  119  A    between atoms: _291  and  _292
REMARK  120  A    between atoms: _295  and  _297
REMARK  121  A    between atoms: _297  and  _298
REMARK  122  A    between atoms: _297  and  _300
REMARK  123  A    between atoms: _300  and  _301
REMARK  124  A    between atoms: _304  and  _306
REMARK  125  A    between atoms: _306  and  _307
REMARK  126  A    between atoms: _306  and  _309
REMARK  127  A    between atoms: _309  and  _310
REMARK  128  A    between atoms: _313  and  _315
REMARK  129  A    between atoms: _315  and  _316
REMARK  130  A    between atoms: _315  and  _318
REMARK  131  A    between atoms: _318  and  _319
REMARK  132  A    between atoms: _322  and  _324
REMARK  133  A    between atoms: _324  and  _325
REMARK  134  A    between atoms: _324  and  _327
REMARK  135  A    between atoms: _327  and  _328
REMARK  136  A    between atoms: _331  and  _333
REMARK  137  A    between atoms: _333  and  _334
REMARK  138  A    between atoms: _336  and  _338
REMARK  139  A    between atoms: _338  and  _339
REMARK  140  A    between atoms: _342  and  _344
REMARK  141  A    between atoms: _344  and  _345
REMARK  142  A    between atoms: _344  and  _347
REMARK  143  A    between atoms: _347  and  _348
REMARK  144  A    between atoms: _351  and  _353
REMARK  145  A    between atoms: _353  and  _354
REMARK  146  A    between atoms: _353  and  _356
REMARK  147  A    between atoms: _356  and  _357
REMARK  148  A    between atoms: _360  and  _362
REMARK  149  A    between atoms: _362  and  _363
REMARK  150  A    between atoms: _362  and  _365
REMARK  151  A    between atoms: _365  and  _366
REMARK  152  A    between atoms: _369  and  _371
REMARK  153  A    between atoms: _371  and  _372
REMARK  154  A    between atoms: _371  and  _374
REMARK  155  A    between atoms: _377  and  _379
REMARK  156  A    between atoms: _379  and  _380
REMARK  157  A    between atoms: _379  and  _382
REMARK  158  A    between atoms: _382  and  _383
REMARK  159  A    between atoms: _383  and  _384
REMARK  160  A    between atoms: _384  and  _385
REMARK  161  A    between atoms: _385  and  _386
REMARK  162  A    between atoms: _390  and  _392
REMARK  163  A    between atoms: _392  and  _393
REMARK  164  A    between atoms: _392  and  _395
REMARK  165  A    between atoms: _395  and  _396
REMARK  166  A    between atoms: _396  and  _397
REMARK  167  A    between atoms: _399  and  _401
REMARK  168  A    between atoms: _401  and  _402
REMARK  169  A    between atoms: _401  and  _404
REMARK  170  A    between atoms: _404  and  _405
REMARK  171  A    between atoms: _408  and  _410
REMARK  172  A    between atoms: _410  and  _411
REMARK  173  A    between atoms: _413  and  _415
REMARK  174  A    between atoms: _415  and  _416
REMARK  175  A    between atoms: _418  and  _420
REMARK  176  A    between atoms: _420  and  _421
REMARK  177  A    between atoms: _420  and  _423
REMARK  178  A    between atoms: _423  and  _424
REMARK  179  A    between atoms: _427  and  _429
REMARK  180  A    between atoms: _429  and  _430
REMARK  181  A    between atoms: _432  and  _434
REMARK  182  A    between atoms: _434  and  _435
REMARK  183  A    between atoms: _437  and  _439
REMARK  184  A    between atoms: _439  and  _440
REMARK  185  A    between atoms: _439  and  _442
REMARK  186  A    between atoms: _442  and  _443
REMARK  187  A    between atoms: _449  and  _451
REMARK  188  A    between atoms: _451  and  _452
REMARK  189  A    between atoms: _451  and  _454
REMARK  190  A    between atoms: _454  and  _455
REMARK  191  A    between atoms: _458  and  _460
REMARK  192  A    between atoms: _460  and  _461
REMARK  193  A    between atoms: _460  and  _463
REMARK  194  A    between atoms: _463  and  _464
REMARK  195  A    between atoms: _467  and  _469
REMARK  196  A    between atoms: _469  and  _470
REMARK  197  A    between atoms: _469  and  _472
REMARK  198  A    between atoms: _472  and  _473
REMARK  199  A    between atoms: _477  and  _478
REMARK  200  A    between atoms: _483  and  _485
REMARK  201  A    between atoms: _485  and  _486
REMARK  202  A    between atoms: _485  and  _488
REMARK  203  A    between atoms: _491  and  _493
REMARK  204  A    between atoms: _493  and  _494
REMARK  205  A    between atoms: _493  and  _496
REMARK  206  A    between atoms: _496  and  _497
REMARK  207  A    between atoms: _502  and  _504
REMARK  208  A    between atoms: _504  and  _505
REMARK  209  A    between atoms: _504  and  _507
REMARK  210  A    between atoms: _507  and  _508
REMARK  211  A    between atoms: _511  and  _513
REMARK  212  A    between atoms: _513  and  _514
REMARK  213  A    between atoms: _513  and  _516
REMARK  214  A    between atoms: _516  and  _517
REMARK  215  A    between atoms: _520  and  _522
REMARK  216  A    between atoms: _522  and  _523
REMARK  217  A    between atoms: _525  and  _527
REMARK  218  A    between atoms: _527  and  _528
REMARK  219  A    between atoms: _527  and  _530
REMARK  220  A    between atoms: _530  and  _531
REMARK  221  A    between atoms: _531  and  _532
REMARK  222  A    between atoms: _532  and  _533
REMARK                            x       y       z     vdW  Elec       q    Type
REMARK                         _______ _______ _______ _____ _____    ______ ____
ROOT
ATOM      1  O   HOH     1      21.961  24.091   4.734  0.00  0.00    +0.000 OA
ENDROOT
TORSDOF 0
REMARK  Name = ../refined-set-2016/2bpv/2bpv_pocket.pdb
REMARK  222 active torsions:
REMARK  status: ('A' for Active; 'I' for Inactive)
REMARK    1  A    between atoms: _1  and  _3
REMARK    2  A    between atoms: _3  and  _4
REMARK    3  A    between atoms: _3  and  _6
REMARK    4  A    between atoms: _6  and  _7
REMARK    5  A    between atoms: _7  and  _8
REMARK    6  A    between atoms: _8  and  _9
REMARK    7  A    between atoms: _18  and  _20
REMARK    8  A    between atoms: _20  and  _21
REMARK    9  A    between atoms: _20  and  _23
REMARK   10  A    between atoms: _23  and  _24
REMARK   11  A    between atoms: _27  and  _29
REMARK   12  A    between atoms: _29  and  _30
REMARK   13  A    between atoms: _29  and  _32
REMARK   14  A    between atoms: _32  and  _33
REMARK   15  A    between atoms: _36  and  _38
REMARK   16  A    between atoms: _38  and  _39
REMARK   17  A    between atoms: _38  and  _41
REMARK   18  A    between atoms: _41  and  _42
REMARK   19  A    between atoms: _45  and  _47
REMARK   20  A    between atoms: _47  and  _48
REMARK   21  A    between atoms: _47  and  _50
REMARK   22  A    between atoms: _50  and  _51
REMARK   23  A    between atoms: _54  and  _56
REMARK   24  A    between atoms: _56  and  _57
REMARK   25  A    between atoms: _56  and  _59
REMARK   26  A    between atoms: _59  and  _60
REMARK   27  A    between atoms: _63  and  _65
REMARK   28  A    between atoms: _65  and  _66
REMARK   29  A    between atoms: _68  and  _70
REMARK   30  A    between atoms: _70  and  _71
REMARK   31  A    between atoms: _74  and  _76
REMARK   32  A    between atoms: _76  and  _77
REMARK   33  A    between atoms: _76  and  _79
REMARK   34  A    between atoms: _79  and  _80
REMARK   35  A    between atoms: _83  and  _85
REMARK   36  A    between atoms: _85  and  _86
REMARK   37  A    between atoms: _85  and  _88
REMARK   38  A    between atoms: _88  and  _89
REMARK   39  A    between atoms: _92  and  _94
REMARK   40  A    between atoms: _94  and  _95
REMARK   41  A    between atoms: _94  and  _97
REMARK   42  A    between atoms: _97  and  _98
REMARK   43  A    between atoms: _101  and  _103
REMARK   44  A    between atoms: _103  and  _104
REMARK   45  A    between atoms: _103  and  _106
REMARK   46  A    between atoms: _109  and  _111
REMARK   47  A    between atoms: _111  and  _112
REMARK   48  A    between atoms: _111  and  _114
REMARK   49  A    between atoms: _114  and  _115
REMARK   50  A    between atoms: _115  and  _116
REMARK   51  A    between atoms: _118  and  _120
REMARK   52  A    between atoms: _120  and  _121
REMARK   53  A    between atoms: _120  and  _123
REMARK   54  A    between atoms: _123  and  _124
REMARK   55  A    between atoms: _127  and  _129
REMARK   56  A    between atoms: _129  and  _130
REMARK   57  A    between atoms: _132  and  _134
REMARK   58  A    between atoms: _134  and  _135
REMARK   59  A    between atoms: _137  and  _139
REMARK   60  A    between atoms: _139  and  _140
REMARK   61  A    between atoms: _139  and  _142
REMARK   62  A    between atoms: _142  and  _143
REMARK   63  A    between atoms: _146  and  _148
REMARK   64  A    between atoms: _148  and  _149
REMARK   65  A    between atoms: _151  and  _153
REMARK   66  A    between atoms: _153  and  _154
REMARK   67  A    between atoms: _156  and  _158
REMARK   68  A    between atoms: _158  and  _159
REMARK   69  A    between atoms: _158  and  _161
REMARK   70  A    between atoms: _161  and  _162
REMARK   71  A    between atoms: _168  and  _170
REMARK   72  A    between atoms: _170  and  _171
REMARK   73  A    between atoms: _170  and  _173
REMARK   74  A    between atoms: _173  and  _174
REMARK   75  A    between atoms: _177  and  _179
REMARK   76  A    between atoms: _179  and  _180
REMARK   77  A    between atoms: _179  and  _182
REMARK   78  A    between atoms: _185  and  _187
REMARK   79  A    between atoms: _187  and  _188
REMARK   80  A    between atoms: _187  and  _190
REMARK   81  A    between atoms: _190  and  _191
REMARK   82  A    between atoms: _194  and  _196
REMARK   83  A    between atoms: _196  and  _197
REMARK   84  A    between atoms: _196  and  _199
REMARK   85  A    between atoms: _199  and  _200
REMARK   86  A    between atoms: _204  and  _205
REMARK   87  A    between atoms: _210  and  _212
REMARK   88  A    between atoms: _212  and  _213
REMARK   89  A    between atoms: _212  and  _215
REMARK   90  A    between atoms: _218  and  _220
REMARK   91  A    between atoms: _220  and  _221
REMARK   92  A    between atoms: _220  and  _223
REMARK   93  A    between atoms: _223  and  _224
REMARK   94  A    between atoms: _229  and  _231
REMARK   95  A    between atoms: _231  and  _232
REMARK   96  A    between atoms: _231  and  _234
REMARK   97  A    between atoms: _234  and  _235
REMARK   98  A    between atoms: _238  and  _240
REMARK   99  A    between atoms: _240  and  _241
REMARK  100  A    between atoms: _240  and  _243
REMARK  101  A    between atoms: _243  and  _244
REMARK  102  A    between atoms: _247  and  _249
REMARK  103  A    between atoms: _249  and  _250
REMARK  104  A    between atoms: _252  and  _254
REMARK  105  A    between atoms: _254  and  _255
REMARK  106  A    between atoms: _254  and  _257
REMARK  107  A    between atoms: _257  and  _258
REMARK  108  A    between atoms: _258  and  _259
REMARK  109  A    between atoms: _259  and  _260
REMARK  110  A    between atoms: _269  and  _271
REMARK  111  A    between atoms: _271  and  _272
REMARK  112  A    between atoms: _271  and  _274
REMARK  113  A    between atoms: _274  and  _275
REMARK  114  A    between atoms: _275  and  _276
REMARK  115  A    between atoms: _276  and  _277
REMARK  116  A    between atoms: _286  and  _288
REMARK  117  A    between atoms: _288  and  _289
REMARK  118  A    between atoms: _288  and  _291
REMARK  119  A    between atoms: _291  and  _292
REMARK  120  A    between atoms: _295  and  _297
REMARK  121  A    between atoms: _297  and  _298
REMARK  122  A    between atoms: _297  and  _300
REMARK  123  A    between atoms: _300  and  _301
REMARK  124  A    between atoms: _304  and  _306
REMARK  125  A    between atoms: _306  and  _307
REMARK  126  A    between atoms: _306  and  _309
REMARK  127  A    between atoms: _309  and  _310
REMARK  128  A    between atoms: _313  and  _315
REMARK  129  A    between atoms: _315  and  _316
REMARK  130  A    between atoms: _315  and  _318
REMARK  131  A    between atoms: _318  and  _319
REMARK  132  A    between atoms: _322  and  _324
REMARK  133  A    between atoms: _324  and  _325
REMARK  134  A    between atoms: _324  and  _327
REMARK  135  A    between atoms: _327  and  _328
REMARK  136  A    between atoms: _331  and  _333
REMARK  137  A    between atoms: _333  and  _334
REMARK  138  A    between atoms: _336  and  _338
REMARK  139  A    between atoms: _338  and  _339
REMARK  140  A    between atoms: _342  and  _344
REMARK  141  A    between atoms: _344  and  _345
REMARK  142  A    between atoms: _344  and  _347
REMARK  143  A    between atoms: _347  and  _348
REMARK  144  A    between atoms: _351  and  _353
REMARK  145  A    between atoms: _353  and  _354
REMARK  146  A    between atoms: _353  and  _356
REMARK  147  A    between atoms: _356  and  _357
REMARK  148  A    between atoms: _360  and  _362
REMARK  149  A    between atoms: _362  and  _363
REMARK  150  A    between atoms: _362  and  _365
REMARK  151  A    between atoms: _365  and  _366
REMARK  152  A    between atoms: _369  and  _371
REMARK  153  A    between atoms: _371  and  _372
REMARK  154  A    between atoms: _371  and  _374
REMARK  155  A    between atoms: _377  and  _379
REMARK  156  A    between atoms: _379  and  _380
REMARK  157  A    between atoms: _379  and  _382
REMARK  158  A    between atoms: _382  and  _383
REMARK  159  A    between atoms: _383  and  _384
REMARK  160  A    between atoms: _384  and  _385
REMARK  161  A    between atoms: _385  and  _386
REMARK  162  A    between atoms: _390  and  _392
REMARK  163  A    between atoms: _392  and  _393
REMARK  164  A    between atoms: _392  and  _395
REMARK  165  A    between atoms: _395  and  _396
REMARK  166  A    between atoms: _396  and  _397
REMARK  167  A    between atoms: _399  and  _401
REMARK  168  A    between atoms: _401  and  _402
REMARK  169  A    between atoms: _401  and  _404
REMARK  170  A    between atoms: _404  and  _405
REMARK  171  A    between atoms: _408  and  _410
REMARK  172  A    between atoms: _410  and  _411
REMARK  173  A    between atoms: _413  and  _415
REMARK  174  A    between atoms: _415  and  _416
REMARK  175  A    between atoms: _418  and  _420
REMARK  176  A    between atoms: _420  and  _421
REMARK  177  A    between atoms: _420  and  _423
REMARK  178  A    between atoms: _423  and  _424
REMARK  179  A    between atoms: _427  and  _429
REMARK  180  A    between atoms: _429  and  _430
REMARK  181  A    between atoms: _432  and  _434
REMARK  182  A    between atoms: _434  and  _435
REMARK  183  A    between atoms: _437  and  _439
REMARK  184  A    between atoms: _439  and  _440
REMARK  185  A    between atoms: _439  and  _442
REMARK  186  A    between atoms: _442  and  _443
REMARK  187  A    between atoms: _449  and  _451
REMARK  188  A    between atoms: _451  and  _452
REMARK  189  A    between atoms: _451  and  _454
REMARK  190  A    between atoms: _454  and  _455
REMARK  191  A    between atoms: _458  and  _460
REMARK  192  A    between atoms: _460  and  _461
REMARK  193  A    between atoms: _460  and  _463
REMARK  194  A    between atoms: _463  and  _464
REMARK  195  A    between atoms: _467  and  _469
REMARK  196  A    between atoms: _469  and  _470
REMARK  197  A    between atoms: _469  and  _472
REMARK  198  A    between atoms: _472  and  _473
REMARK  199  A    between atoms: _477  and  _478
REMARK  200  A    between atoms: _483  and  _485
REMARK  201  A    between atoms: _485  and  _486
REMARK  202  A    between atoms: _485  and  _488
REMARK  203  A    between atoms: _491  and  _493
REMARK  204  A    between atoms: _493  and  _494
REMARK  205  A    between atoms: _493  and  _496
REMARK  206  A    between atoms: _496  and  _497
REMARK  207  A    between atoms: _502  and  _504
REMARK  208  A    between atoms: _504  and  _505
REMARK  209  A    between atoms: _504  and  _507
REMARK  210  A    between atoms: _507  and  _508
REMARK  211  A    between atoms: _511  and  _513
REMARK  212  A    between atoms: _513  and  _514
REMARK  213  A    between atoms: _513  and  _516
REMARK  214  A    between atoms: _516  and  _517
REMARK  215  A    between atoms: _520  and  _522
REMARK  216  A    between atoms: _522  and  _523
REMARK  217  A    between atoms: _525  and  _527
REMARK  218  A    between atoms: _527  and  _528
REMARK  219  A    between atoms: _527  and  _530
REMARK  220  A    between atoms: _530  and  _531
REMARK  221  A    between atoms: _531  and  _532
REMARK  222  A    between atoms: _532  and  _533
REMARK                            x       y       z     vdW  Elec       q    Type
REMARK                         _______ _______ _______ _____ _____    ______ ____
ROOT
ATOM      1  O   HOH     1      11.214  21.319   6.462  0.00  0.00    +0.000 OA
ENDROOT
TORSDOF 0
REMARK  Name = ../refined-set-2016/2bpv/2bpv_pocket.pdb
REMARK  222 active torsions:
REMARK  status: ('A' for Active; 'I' for Inactive)
REMARK    1  A    between atoms: _1  and  _3
REMARK    2  A    between atoms: _3  and  _4
REMARK    3  A    between atoms: _3  and  _6
REMARK    4  A    between atoms: _6  and  _7
REMARK    5  A    between atoms: _7  and  _8
REMARK    6  A    between atoms: _8  and  _9
REMARK    7  A    between atoms: _18  and  _20
REMARK    8  A    between atoms: _20  and  _21
REMARK    9  A    between atoms: _20  and  _23
REMARK   10  A    between atoms: _23  and  _24
REMARK   11  A    between atoms: _27  and  _29
REMARK   12  A    between atoms: _29  and  _30
REMARK   13  A    between atoms: _29  and  _32
REMARK   14  A    between atoms: _32  and  _33
REMARK   15  A    between atoms: _36  and  _38
REMARK   16  A    between atoms: _38  and  _39
REMARK   17  A    between atoms: _38  and  _41
REMARK   18  A    between atoms: _41  and  _42
REMARK   19  A    between atoms: _45  and  _47
REMARK   20  A    between atoms: _47  and  _48
REMARK   21  A    between atoms: _47  and  _50
REMARK   22  A    between atoms: _50  and  _51
REMARK   23  A    between atoms: _54  and  _56
REMARK   24  A    between atoms: _56  and  _57
REMARK   25  A    between atoms: _56  and  _59
REMARK   26  A    between atoms: _59  and  _60
REMARK   27  A    between atoms: _63  and  _65
REMARK   28  A    between atoms: _65  and  _66
REMARK   29  A    between atoms: _68  and  _70
REMARK   30  A    between atoms: _70  and  _71
REMARK   31  A    between atoms: _74  and  _76
REMARK   32  A    between atoms: _76  and  _77
REMARK   33  A    between atoms: _76  and  _79
REMARK   34  A    between atoms: _79  and  _80
REMARK   35  A    between atoms: _83  and  _85
REMARK   36  A    between atoms: _85  and  _86
REMARK   37  A    between atoms: _85  and  _88
REMARK   38  A    between atoms: _88  and  _89
REMARK   39  A    between atoms: _92  and  _94
REMARK   40  A    between atoms: _94  and  _95
REMARK   41  A    between atoms: _94  and  _97
REMARK   42  A    between atoms: _97  and  _98
REMARK   43  A    between atoms: _101  and  _103
REMARK   44  A    between atoms: _103  and  _104
REMARK   45  A    between atoms: _103  and  _106
REMARK   46  A    between atoms: _109  and  _111
REMARK   47  A    between atoms: _111  and  _112
REMARK   48  A    between atoms: _111  and  _114
REMARK   49  A    between atoms: _114  and  _115
REMARK   50  A    between atoms: _115  and  _116
REMARK   51  A    between atoms: _118  and  _120
REMARK   52  A    between atoms: _120  and  _121
REMARK   53  A    between atoms: _120  and  _123
REMARK   54  A    between atoms: _123  and  _124
REMARK   55  A    between atoms: _127  and  _129
REMARK   56  A    between atoms: _129  and  _130
REMARK   57  A    between atoms: _132  and  _134
REMARK   58  A    between atoms: _134  and  _135
REMARK   59  A    between atoms: _137  and  _139
REMARK   60  A    between atoms: _139  and  _140
REMARK   61  A    between atoms: _139  and  _142
REMARK   62  A    between atoms: _142  and  _143
REMARK   63  A    between atoms: _146  and  _148
REMARK   64  A    between atoms: _148  and  _149
REMARK   65  A    between atoms: _151  and  _153
REMARK   66  A    between atoms: _153  and  _154
REMARK   67  A    between atoms: _156  and  _158
REMARK   68  A    between atoms: _158  and  _159
REMARK   69  A    between atoms: _158  and  _161
REMARK   70  A    between atoms: _161  and  _162
REMARK   71  A    between atoms: _168  and  _170
REMARK   72  A    between atoms: _170  and  _171
REMARK   73  A    between atoms: _170  and  _173
REMARK   74  A    between atoms: _173  and  _174
REMARK   75  A    between atoms: _177  and  _179
REMARK   76  A    between atoms: _179  and  _180
REMARK   77  A    between atoms: _179  and  _182
REMARK   78  A    between atoms: _185  and  _187
REMARK   79  A    between atoms: _187  and  _188
REMARK   80  A    between atoms: _187  and  _190
REMARK   81  A    between atoms: _190  and  _191
REMARK   82  A    between atoms: _194  and  _196
REMARK   83  A    between atoms: _196  and  _197
REMARK   84  A    between atoms: _196  and  _199
REMARK   85  A    between atoms: _199  and  _200
REMARK   86  A    between atoms: _204  and  _205
REMARK   87  A    between atoms: _210  and  _212
REMARK   88  A    between atoms: _212  and  _213
REMARK   89  A    between atoms: _212  and  _215
REMARK   90  A    between atoms: _218  and  _220
REMARK   91  A    between atoms: _220  and  _221
REMARK   92  A    between atoms: _220  and  _223
REMARK   93  A    between atoms: _223  and  _224
REMARK   94  A    between atoms: _229  and  _231
REMARK   95  A    between atoms: _231  and  _232
REMARK   96  A    between atoms: _231  and  _234
REMARK   97  A    between atoms: _234  and  _235
REMARK   98  A    between atoms: _238  and  _240
REMARK   99  A    between atoms: _240  and  _241
REMARK  100  A    between atoms: _240  and  _243
REMARK  101  A    between atoms: _243  and  _244
REMARK  102  A    between atoms: _247  and  _249
REMARK  103  A    between atoms: _249  and  _250
REMARK  104  A    between atoms: _252  and  _254
REMARK  105  A    between atoms: _254  and  _255
REMARK  106  A    between atoms: _254  and  _257
REMARK  107  A    between atoms: _257  and  _258
REMARK  108  A    between atoms: _258  and  _259
REMARK  109  A    between atoms: _259  and  _260
REMARK  110  A    between atoms: _269  and  _271
REMARK  111  A    between atoms: _271  and  _272
REMARK  112  A    between atoms: _271  and  _274
REMARK  113  A    between atoms: _274  and  _275
REMARK  114  A    between atoms: _275  and  _276
REMARK  115  A    between atoms: _276  and  _277
REMARK  116  A    between atoms: _286  and  _288
REMARK  117  A    between atoms: _288  and  _289
REMARK  118  A    between atoms: _288  and  _291
REMARK  119  A    between atoms: _291  and  _292
REMARK  120  A    between atoms: _295  and  _297
REMARK  121  A    between atoms: _297  and  _298
REMARK  122  A    between atoms: _297  and  _300
REMARK  123  A    between atoms: _300  and  _301
REMARK  124  A    between atoms: _304  and  _306
REMARK  125  A    between atoms: _306  and  _307
REMARK  126  A    between atoms: _306  and  _309
REMARK  127  A    between atoms: _309  and  _310
REMARK  128  A    between atoms: _313  and  _315
REMARK  129  A    between atoms: _315  and  _316
REMARK  130  A    between atoms: _315  and  _318
REMARK  131  A    between atoms: _318  and  _319
REMARK  132  A    between atoms: _322  and  _324
REMARK  133  A    between atoms: _324  and  _325
REMARK  134  A    between atoms: _324  and  _327
REMARK  135  A    between atoms: _327  and  _328
REMARK  136  A    between atoms: _331  and  _333
REMARK  137  A    between atoms: _333  and  _334
REMARK  138  A    between atoms: _336  and  _338
REMARK  139  A    between atoms: _338  and  _339
REMARK  140  A    between atoms: _342  and  _344
REMARK  141  A    between atoms: _344  and  _345
REMARK  142  A    between atoms: _344  and  _347
REMARK  143  A    between atoms: _347  and  _348
REMARK  144  A    between atoms: _351  and  _353
REMARK  145  A    between atoms: _353  and  _354
REMARK  146  A    between atoms: _353  and  _356
REMARK  147  A    between atoms: _356  and  _357
REMARK  148  A    between atoms: _360  and  _362
REMARK  149  A    between atoms: _362  and  _363
REMARK  150  A    between atoms: _362  and  _365
REMARK  151  A    between atoms: _365  and  _366
REMARK  152  A    between atoms: _369  and  _371
REMARK  153  A    between atoms: _371  and  _372
REMARK  154  A    between atoms: _371  and  _374
REMARK  155  A    between atoms: _377  and  _379
REMARK  156  A    between atoms: _379  and  _380
REMARK  157  A    between atoms: _379  and  _382
REMARK  158  A    between atoms: _382  and  _383
REMARK  159  A    between atoms: _383  and  _384
REMARK  160  A    between atoms: _384  and  _385
REMARK  161  A    between atoms: _385  and  _386
REMARK  162  A    between atoms: _390  and  _392
REMARK  163  A    between atoms: _392  and  _393
REMARK  164  A    between atoms: _392  and  _395
REMARK  165  A    between atoms: _395  and  _396
REMARK  166  A    between atoms: _396  and  _397
REMARK  167  A    between atoms: _399  and  _401
REMARK  168  A    between atoms: _401  and  _402
REMARK  169  A    between atoms: _401  and  _404
REMARK  170  A    between atoms: _404  and  _405
REMARK  171  A    between atoms: _408  and  _410
REMARK  172  A    between atoms: _410  and  _411
REMARK  173  A    between atoms: _413  and  _415
REMARK  174  A    between atoms: _415  and  _416
REMARK  175  A    between atoms: _418  and  _420
REMARK  176  A    between atoms: _420  and  _421
REMARK  177  A    between atoms: _420  and  _423
REMARK  178  A    between atoms: _423  and  _424
REMARK  179  A    between atoms: _427  and  _429
REMARK  180  A    between atoms: _429  and  _430
REMARK  181  A    between atoms: _432  and  _434
REMARK  182  A    between atoms: _434  and  _435
REMARK  183  A    between atoms: _437  and  _439
REMARK  184  A    between atoms: _439  and  _440
REMARK  185  A    between atoms: _439  and  _442
REMARK  186  A    between atoms: _442  and  _443
REMARK  187  A    between atoms: _449  and  _451
REMARK  188  A    between atoms: _451  and  _452
REMARK  189  A    between atoms: _451  and  _454
REMARK  190  A    between atoms: _454  and  _455
REMARK  191  A    between atoms: _458  and  _460
REMARK  192  A    between atoms: _460  and  _461
REMARK  193  A    between atoms: _460  and  _463
REMARK  194  A    between atoms: _463  and  _464
REMARK  195  A    between atoms: _467  and  _469
REMARK  196  A    between atoms: _469  and  _470
REMARK  197  A    between atoms: _469  and  _472
REMARK  198  A    between atoms: _472  and  _473
REMARK  199  A    between atoms: _477  and  _478
REMARK  200  A    between atoms: _483  and  _485
REMARK  201  A    between atoms: _485  and  _486
REMARK  202  A    between atoms: _485  and  _488
REMARK  203  A    between atoms: _491  and  _493
REMARK  204  A    between atoms: _493  and  _494
REMARK  205  A    between atoms: _493  and  _496
REMARK  206  A    between atoms: _496  and  _497
REMARK  207  A    between atoms: _502  and  _504
REMARK  208  A    between atoms: _504  and  _505
REMARK  209  A    between atoms: _504  and  _507
REMARK  210  A    between atoms: _507  and  _508
REMARK  211  A    between atoms: _511  and  _513
REMARK  212  A    between atoms: _513  and  _514
REMARK  213  A    between atoms: _513  and  _516
REMARK  214  A    between atoms: _516  and  _517
REMARK  215  A    between atoms: _520  and  _522
REMARK  216  A    between atoms: _522  and  _523
REMARK  217  A    between atoms: _525  and  _527
REMARK  218  A    between atoms: _527  and  _528
REMARK  219  A    between atoms: _527  and  _530
REMARK  220  A    between atoms: _530  and  _531
REMARK  221  A    between atoms: _531  and  _532
REMARK  222  A    between atoms: _532  and  _533
REMARK                            x       y       z     vdW  Elec       q    Type
REMARK                         _______ _______ _______ _____ _____    ______ ____
ROOT
ATOM      1  O   HOH     1      20.576  22.378   6.401  0.00  0.00    +0.000 OA
ENDROOT
TORSDOF 0
REMARK  Name = ../refined-set-2016/2bpv/2bpv_pocket.pdb
REMARK  222 active torsions:
REMARK  status: ('A' for Active; 'I' for Inactive)
REMARK    1  A    between atoms: _1  and  _3
REMARK    2  A    between atoms: _3  and  _4
REMARK    3  A    between atoms: _3  and  _6
REMARK    4  A    between atoms: _6  and  _7
REMARK    5  A    between atoms: _7  and  _8
REMARK    6  A    between atoms: _8  and  _9
REMARK    7  A    between atoms: _18  and  _20
REMARK    8  A    between atoms: _20  and  _21
REMARK    9  A    between atoms: _20  and  _23
REMARK   10  A    between atoms: _23  and  _24
REMARK   11  A    between atoms: _27  and  _29
REMARK   12  A    between atoms: _29  and  _30
REMARK   13  A    between atoms: _29  and  _32
REMARK   14  A    between atoms: _32  and  _33
REMARK   15  A    between atoms: _36  and  _38
REMARK   16  A    between atoms: _38  and  _39
REMARK   17  A    between atoms: _38  and  _41
REMARK   18  A    between atoms: _41  and  _42
REMARK   19  A    between atoms: _45  and  _47
REMARK   20  A    between atoms: _47  and  _48
REMARK   21  A    between atoms: _47  and  _50
REMARK   22  A    between atoms: _50  and  _51
REMARK   23  A    between atoms: _54  and  _56
REMARK   24  A    between atoms: _56  and  _57
REMARK   25  A    between atoms: _56  and  _59
REMARK   26  A    between atoms: _59  and  _60
REMARK   27  A    between atoms: _63  and  _65
REMARK   28  A    between atoms: _65  and  _66
REMARK   29  A    between atoms: _68  and  _70
REMARK   30  A    between atoms: _70  and  _71
REMARK   31  A    between atoms: _74  and  _76
REMARK   32  A    between atoms: _76  and  _77
REMARK   33  A    between atoms: _76  and  _79
REMARK   34  A    between atoms: _79  and  _80
REMARK   35  A    between atoms: _83  and  _85
REMARK   36  A    between atoms: _85  and  _86
REMARK   37  A    between atoms: _85  and  _88
REMARK   38  A    between atoms: _88  and  _89
REMARK   39  A    between atoms: _92  and  _94
REMARK   40  A    between atoms: _94  and  _95
REMARK   41  A    between atoms: _94  and  _97
REMARK   42  A    between atoms: _97  and  _98
REMARK   43  A    between atoms: _101  and  _103
REMARK   44  A    between atoms: _103  and  _104
REMARK   45  A    between atoms: _103  and  _106
REMARK   46  A    between atoms: _109  and  _111
REMARK   47  A    between atoms: _111  and  _112
REMARK   48  A    between atoms: _111  and  _114
REMARK   49  A    between atoms: _114  and  _115
REMARK   50  A    between atoms: _115  and  _116
REMARK   51  A    between atoms: _118  and  _120
REMARK   52  A    between atoms: _120  and  _121
REMARK   53  A    between atoms: _120  and  _123
REMARK   54  A    between atoms: _123  and  _124
REMARK   55  A    between atoms: _127  and  _129
REMARK   56  A    between atoms: _129  and  _130
REMARK   57  A    between atoms: _132  and  _134
REMARK   58  A    between atoms: _134  and  _135
REMARK   59  A    between atoms: _137  and  _139
REMARK   60  A    between atoms: _139  and  _140
REMARK   61  A    between atoms: _139  and  _142
REMARK   62  A    between atoms: _142  and  _143
REMARK   63  A    between atoms: _146  and  _148
REMARK   64  A    between atoms: _148  and  _149
REMARK   65  A    between atoms: _151  and  _153
REMARK   66  A    between atoms: _153  and  _154
REMARK   67  A    between atoms: _156  and  _158
REMARK   68  A    between atoms: _158  and  _159
REMARK   69  A    between atoms: _158  and  _161
REMARK   70  A    between atoms: _161  and  _162
REMARK   71  A    between atoms: _168  and  _170
REMARK   72  A    between atoms: _170  and  _171
REMARK   73  A    between atoms: _170  and  _173
REMARK   74  A    between atoms: _173  and  _174
REMARK   75  A    between atoms: _177  and  _179
REMARK   76  A    between atoms: _179  and  _180
REMARK   77  A    between atoms: _179  and  _182
REMARK   78  A    between atoms: _185  and  _187
REMARK   79  A    between atoms: _187  and  _188
REMARK   80  A    between atoms: _187  and  _190
REMARK   81  A    between atoms: _190  and  _191
REMARK   82  A    between atoms: _194  and  _196
REMARK   83  A    between atoms: _196  and  _197
REMARK   84  A    between atoms: _196  and  _199
REMARK   85  A    between atoms: _199  and  _200
REMARK   86  A    between atoms: _204  and  _205
REMARK   87  A    between atoms: _210  and  _212
REMARK   88  A    between atoms: _212  and  _213
REMARK   89  A    between atoms: _212  and  _215
REMARK   90  A    between atoms: _218  and  _220
REMARK   91  A    between atoms: _220  and  _221
REMARK   92  A    between atoms: _220  and  _223
REMARK   93  A    between atoms: _223  and  _224
REMARK   94  A    between atoms: _229  and  _231
REMARK   95  A    between atoms: _231  and  _232
REMARK   96  A    between atoms: _231  and  _234
REMARK   97  A    between atoms: _234  and  _235
REMARK   98  A    between atoms: _238  and  _240
REMARK   99  A    between atoms: _240  and  _241
REMARK  100  A    between atoms: _240  and  _243
REMARK  101  A    between atoms: _243  and  _244
REMARK  102  A    between atoms: _247  and  _249
REMARK  103  A    between atoms: _249  and  _250
REMARK  104  A    between atoms: _252  and  _254
REMARK  105  A    between atoms: _254  and  _255
REMARK  106  A    between atoms: _254  and  _257
REMARK  107  A    between atoms: _257  and  _258
REMARK  108  A    between atoms: _258  and  _259
REMARK  109  A    between atoms: _259  and  _260
REMARK  110  A    between atoms: _269  and  _271
REMARK  111  A    between atoms: _271  and  _272
REMARK  112  A    between atoms: _271  and  _274
REMARK  113  A    between atoms: _274  and  _275
REMARK  114  A    between atoms: _275  and  _276
REMARK  115  A    between atoms: _276  and  _277
REMARK  116  A    between atoms: _286  and  _288
REMARK  117  A    between atoms: _288  and  _289
REMARK  118  A    between atoms: _288  and  _291
REMARK  119  A    between atoms: _291  and  _292
REMARK  120  A    between atoms: _295  and  _297
REMARK  121  A    between atoms: _297  and  _298
REMARK  122  A    between atoms: _297  and  _300
REMARK  123  A    between atoms: _300  and  _301
REMARK  124  A    between atoms: _304  and  _306
REMARK  125  A    between atoms: _306  and  _307
REMARK  126  A    between atoms: _306  and  _309
REMARK  127  A    between atoms: _309  and  _310
REMARK  128  A    between atoms: _313  and  _315
REMARK  129  A    between atoms: _315  and  _316
REMARK  130  A    between atoms: _315  and  _318
REMARK  131  A    between atoms: _318  and  _319
REMARK  132  A    between atoms: _322  and  _324
REMARK  133  A    between atoms: _324  and  _325
REMARK  134  A    between atoms: _324  and  _327
REMARK  135  A    between atoms: _327  and  _328
REMARK  136  A    between atoms: _331  and  _333
REMARK  137  A    between atoms: _333  and  _334
REMARK  138  A    between atoms: _336  and  _338
REMARK  139  A    between atoms: _338  and  _339
REMARK  140  A    between atoms: _342  and  _344
REMARK  141  A    between atoms: _344  and  _345
REMARK  142  A    between atoms: _344  and  _347
REMARK  143  A    between atoms: _347  and  _348
REMARK  144  A    between atoms: _351  and  _353
REMARK  145  A    between atoms: _353  and  _354
REMARK  146  A    between atoms: _353  and  _356
REMARK  147  A    between atoms: _356  and  _357
REMARK  148  A    between atoms: _360  and  _362
REMARK  149  A    between atoms: _362  and  _363
REMARK  150  A    between atoms: _362  and  _365
REMARK  151  A    between atoms: _365  and  _366
REMARK  152  A    between atoms: _369  and  _371
REMARK  153  A    between atoms: _371  and  _372
REMARK  154  A    between atoms: _371  and  _374
REMARK  155  A    between atoms: _377  and  _379
REMARK  156  A    between atoms: _379  and  _380
REMARK  157  A    between atoms: _379  and  _382
REMARK  158  A    between atoms: _382  and  _383
REMARK  159  A    between atoms: _383  and  _384
REMARK  160  A    between atoms: _384  and  _385
REMARK  161  A    between atoms: _385  and  _386
REMARK  162  A    between atoms: _390  and  _392
REMARK  163  A    between atoms: _392  and  _393
REMARK  164  A    between atoms: _392  and  _395
REMARK  165  A    between atoms: _395  and  _396
REMARK  166  A    between atoms: _396  and  _397
REMARK  167  A    between atoms: _399  and  _401
REMARK  168  A    between atoms: _401  and  _402
REMARK  169  A    between atoms: _401  and  _404
REMARK  170  A    between atoms: _404  and  _405
REMARK  171  A    between atoms: _408  and  _410
REMARK  172  A    between atoms: _410  and  _411
REMARK  173  A    between atoms: _413  and  _415
REMARK  174  A    between atoms: _415  and  _416
REMARK  175  A    between atoms: _418  and  _420
REMARK  176  A    between atoms: _420  and  _421
REMARK  177  A    between atoms: _420  and  _423
REMARK  178  A    between atoms: _423  and  _424
REMARK  179  A    between atoms: _427  and  _429
REMARK  180  A    between atoms: _429  and  _430
REMARK  181  A    between atoms: _432  and  _434
REMARK  182  A    between atoms: _434  and  _435
REMARK  183  A    between atoms: _437  and  _439
REMARK  184  A    between atoms: _439  and  _440
REMARK  185  A    between atoms: _439  and  _442
REMARK  186  A    between atoms: _442  and  _443
REMARK  187  A    between atoms: _449  and  _451
REMARK  188  A    between atoms: _451  and  _452
REMARK  189  A    between atoms: _451  and  _454
REMARK  190  A    between atoms: _454  and  _455
REMARK  191  A    between atoms: _458  and  _460
REMARK  192  A    between atoms: _460  and  _461
REMARK  193  A    between atoms: _460  and  _463
REMARK  194  A    between atoms: _463  and  _464
REMARK  195  A    between atoms: _467  and  _469
REMARK  196  A    between atoms: _469  and  _470
REMARK  197  A    between atoms: _469  and  _472
REMARK  198  A    between atoms: _472  and  _473
REMARK  199  A    between atoms: _477  and  _478
REMARK  200  A    between atoms: _483  and  _485
REMARK  201  A    between atoms: _485  and  _486
REMARK  202  A    between atoms: _485  and  _488
REMARK  203  A    between atoms: _491  and  _493
REMARK  204  A    between atoms: _493  and  _494
REMARK  205  A    between atoms: _493  and  _496
REMARK  206  A    between atoms: _496  and  _497
REMARK  207  A    between atoms: _502  and  _504
REMARK  208  A    between atoms: _504  and  _505
REMARK  209  A    between atoms: _504  and  _507
REMARK  210  A    between atoms: _507  and  _508
REMARK  211  A    between atoms: _511  and  _513
REMARK  212  A    between atoms: _513  and  _514
REMARK  213  A    between atoms: _513  and  _516
REMARK  214  A    between atoms: _516  and  _517
REMARK  215  A    between atoms: _520  and  _522
REMARK  216  A    between atoms: _522  and  _523
REMARK  217  A    between atoms: _525  and  _527
REMARK  218  A    between atoms: _527  and  _528
REMARK  219  A    between atoms: _527  and  _530
REMARK  220  A    between atoms: _530  and  _531
REMARK  221  A    between atoms: _531  and  _532
REMARK  222  A    between atoms: _532  and  _533
REMARK                            x       y       z     vdW  Elec       q    Type
REMARK                         _______ _______ _______ _____ _____    ______ ____
ROOT
ATOM      1  O   HOH     1      25.107  19.458   0.478  0.00  0.00    +0.000 OA
ENDROOT
TORSDOF 0
REMARK  Name = ../refined-set-2016/2bpv/2bpv_pocket.pdb
REMARK  222 active torsions:
REMARK  status: ('A' for Active; 'I' for Inactive)
REMARK    1  A    between atoms: _1  and  _3
REMARK    2  A    between atoms: _3  and  _4
REMARK    3  A    between atoms: _3  and  _6
REMARK    4  A    between atoms: _6  and  _7
REMARK    5  A    between atoms: _7  and  _8
REMARK    6  A    between atoms: _8  and  _9
REMARK    7  A    between atoms: _18  and  _20
REMARK    8  A    between atoms: _20  and  _21
REMARK    9  A    between atoms: _20  and  _23
REMARK   10  A    between atoms: _23  and  _24
REMARK   11  A    between atoms: _27  and  _29
REMARK   12  A    between atoms: _29  and  _30
REMARK   13  A    between atoms: _29  and  _32
REMARK   14  A    between atoms: _32  and  _33
REMARK   15  A    between atoms: _36  and  _38
REMARK   16  A    between atoms: _38  and  _39
REMARK   17  A    between atoms: _38  and  _41
REMARK   18  A    between atoms: _41  and  _42
REMARK   19  A    between atoms: _45  and  _47
REMARK   20  A    between atoms: _47  and  _48
REMARK   21  A    between atoms: _47  and  _50
REMARK   22  A    between atoms: _50  and  _51
REMARK   23  A    between atoms: _54  and  _56
REMARK   24  A    between atoms: _56  and  _57
REMARK   25  A    between atoms: _56  and  _59
REMARK   26  A    between atoms: _59  and  _60
REMARK   27  A    between atoms: _63  and  _65
REMARK   28  A    between atoms: _65  and  _66
REMARK   29  A    between atoms: _68  and  _70
REMARK   30  A    between atoms: _70  and  _71
REMARK   31  A    between atoms: _74  and  _76
REMARK   32  A    between atoms: _76  and  _77
REMARK   33  A    between atoms: _76  and  _79
REMARK   34  A    between atoms: _79  and  _80
REMARK   35  A    between atoms: _83  and  _85
REMARK   36  A    between atoms: _85  and  _86
REMARK   37  A    between atoms: _85  and  _88
REMARK   38  A    between atoms: _88  and  _89
REMARK   39  A    between atoms: _92  and  _94
REMARK   40  A    between atoms: _94  and  _95
REMARK   41  A    between atoms: _94  and  _97
REMARK   42  A    between atoms: _97  and  _98
REMARK   43  A    between atoms: _101  and  _103
REMARK   44  A    between atoms: _103  and  _104
REMARK   45  A    between atoms: _103  and  _106
REMARK   46  A    between atoms: _109  and  _111
REMARK   47  A    between atoms: _111  and  _112
REMARK   48  A    between atoms: _111  and  _114
REMARK   49  A    between atoms: _114  and  _115
REMARK   50  A    between atoms: _115  and  _116
REMARK   51  A    between atoms: _118  and  _120
REMARK   52  A    between atoms: _120  and  _121
REMARK   53  A    between atoms: _120  and  _123
REMARK   54  A    between atoms: _123  and  _124
REMARK   55  A    between atoms: _127  and  _129
REMARK   56  A    between atoms: _129  and  _130
REMARK   57  A    between atoms: _132  and  _134
REMARK   58  A    between atoms: _134  and  _135
REMARK   59  A    between atoms: _137  and  _139
REMARK   60  A    between atoms: _139  and  _140
REMARK   61  A    between atoms: _139  and  _142
REMARK   62  A    between atoms: _142  and  _143
REMARK   63  A    between atoms: _146  and  _148
REMARK   64  A    between atoms: _148  and  _149
REMARK   65  A    between atoms: _151  and  _153
REMARK   66  A    between atoms: _153  and  _154
REMARK   67  A    between atoms: _156  and  _158
REMARK   68  A    between atoms: _158  and  _159
REMARK   69  A    between atoms: _158  and  _161
REMARK   70  A    between atoms: _161  and  _162
REMARK   71  A    between atoms: _168  and  _170
REMARK   72  A    between atoms: _170  and  _171
REMARK   73  A    between atoms: _170  and  _173
REMARK   74  A    between atoms: _173  and  _174
REMARK   75  A    between atoms: _177  and  _179
REMARK   76  A    between atoms: _179  and  _180
REMARK   77  A    between atoms: _179  and  _182
REMARK   78  A    between atoms: _185  and  _187
REMARK   79  A    between atoms: _187  and  _188
REMARK   80  A    between atoms: _187  and  _190
REMARK   81  A    between atoms: _190  and  _191
REMARK   82  A    between atoms: _194  and  _196
REMARK   83  A    between atoms: _196  and  _197
REMARK   84  A    between atoms: _196  and  _199
REMARK   85  A    between atoms: _199  and  _200
REMARK   86  A    between atoms: _204  and  _205
REMARK   87  A    between atoms: _210  and  _212
REMARK   88  A    between atoms: _212  and  _213
REMARK   89  A    between atoms: _212  and  _215
REMARK   90  A    between atoms: _218  and  _220
REMARK   91  A    between atoms: _220  and  _221
REMARK   92  A    between atoms: _220  and  _223
REMARK   93  A    between atoms: _223  and  _224
REMARK   94  A    between atoms: _229  and  _231
REMARK   95  A    between atoms: _231  and  _232
REMARK   96  A    between atoms: _231  and  _234
REMARK   97  A    between atoms: _234  and  _235
REMARK   98  A    between atoms: _238  and  _240
REMARK   99  A    between atoms: _240  and  _241
REMARK  100  A    between atoms: _240  and  _243
REMARK  101  A    between atoms: _243  and  _244
REMARK  102  A    between atoms: _247  and  _249
REMARK  103  A    between atoms: _249  and  _250
REMARK  104  A    between atoms: _252  and  _254
REMARK  105  A    between atoms: _254  and  _255
REMARK  106  A    between atoms: _254  and  _257
REMARK  107  A    between atoms: _257  and  _258
REMARK  108  A    between atoms: _258  and  _259
REMARK  109  A    between atoms: _259  and  _260
REMARK  110  A    between atoms: _269  and  _271
REMARK  111  A    between atoms: _271  and  _272
REMARK  112  A    between atoms: _271  and  _274
REMARK  113  A    between atoms: _274  and  _275
REMARK  114  A    between atoms: _275  and  _276
REMARK  115  A    between atoms: _276  and  _277
REMARK  116  A    between atoms: _286  and  _288
REMARK  117  A    between atoms: _288  and  _289
REMARK  118  A    between atoms: _288  and  _291
REMARK  119  A    between atoms: _291  and  _292
REMARK  120  A    between atoms: _295  and  _297
REMARK  121  A    between atoms: _297  and  _298
REMARK  122  A    between atoms: _297  and  _300
REMARK  123  A    between atoms: _300  and  _301
REMARK  124  A    between atoms: _304  and  _306
REMARK  125  A    between atoms: _306  and  _307
REMARK  126  A    between atoms: _306  and  _309
REMARK  127  A    between atoms: _309  and  _310
REMARK  128  A    between atoms: _313  and  _315
REMARK  129  A    between atoms: _315  and  _316
REMARK  130  A    between atoms: _315  and  _318
REMARK  131  A    between atoms: _318  and  _319
REMARK  132  A    between atoms: _322  and  _324
REMARK  133  A    between atoms: _324  and  _325
REMARK  134  A    between atoms: _324  and  _327
REMARK  135  A    between atoms: _327  and  _328
REMARK  136  A    between atoms: _331  and  _333
REMARK  137  A    between atoms: _333  and  _334
REMARK  138  A    between atoms: _336  and  _338
REMARK  139  A    between atoms: _338  and  _339
REMARK  140  A    between atoms: _342  and  _344
REMARK  141  A    between atoms: _344  and  _345
REMARK  142  A    between atoms: _344  and  _347
REMARK  143  A    between atoms: _347  and  _348
REMARK  144  A    between atoms: _351  and  _353
REMARK  145  A    between atoms: _353  and  _354
REMARK  146  A    between atoms: _353  and  _356
REMARK  147  A    between atoms: _356  and  _357
REMARK  148  A    between atoms: _360  and  _362
REMARK  149  A    between atoms: _362  and  _363
REMARK  150  A    between atoms: _362  and  _365
REMARK  151  A    between atoms: _365  and  _366
REMARK  152  A    between atoms: _369  and  _371
REMARK  153  A    between atoms: _371  and  _372
REMARK  154  A    between atoms: _371  and  _374
REMARK  155  A    between atoms: _377  and  _379
REMARK  156  A    between atoms: _379  and  _380
REMARK  157  A    between atoms: _379  and  _382
REMARK  158  A    between atoms: _382  and  _383
REMARK  159  A    between atoms: _383  and  _384
REMARK  160  A    between atoms: _384  and  _385
REMARK  161  A    between atoms: _385  and  _386
REMARK  162  A    between atoms: _390  and  _392
REMARK  163  A    between atoms: _392  and  _393
REMARK  164  A    between atoms: _392  and  _395
REMARK  165  A    between atoms: _395  and  _396
REMARK  166  A    between atoms: _396  and  _397
REMARK  167  A    between atoms: _399  and  _401
REMARK  168  A    between atoms: _401  and  _402
REMARK  169  A    between atoms: _401  and  _404
REMARK  170  A    between atoms: _404  and  _405
REMARK  171  A    between atoms: _408  and  _410
REMARK  172  A    between atoms: _410  and  _411
REMARK  173  A    between atoms: _413  and  _415
REMARK  174  A    between atoms: _415  and  _416
REMARK  175  A    between atoms: _418  and  _420
REMARK  176  A    between atoms: _420  and  _421
REMARK  177  A    between atoms: _420  and  _423
REMARK  178  A    between atoms: _423  and  _424
REMARK  179  A    between atoms: _427  and  _429
REMARK  180  A    between atoms: _429  and  _430
REMARK  181  A    between atoms: _432  and  _434
REMARK  182  A    between atoms: _434  and  _435
REMARK  183  A    between atoms: _437  and  _439
REMARK  184  A    between atoms: _439  and  _440
REMARK  185  A    between atoms: _439  and  _442
REMARK  186  A    between atoms: _442  and  _443
REMARK  187  A    between atoms: _449  and  _451
REMARK  188  A    between atoms: _451  and  _452
REMARK  189  A    between atoms: _451  and  _454
REMARK  190  A    between atoms: _454  and  _455
REMARK  191  A    between atoms: _458  and  _460
REMARK  192  A    between atoms: _460  and  _461
REMARK  193  A    between atoms: _460  and  _463
REMARK  194  A    between atoms: _463  and  _464
REMARK  195  A    between atoms: _467  and  _469
REMARK  196  A    between atoms: _469  and  _470
REMARK  197  A    between atoms: _469  and  _472
REMARK  198  A    between atoms: _472  and  _473
REMARK  199  A    between atoms: _477  and  _478
REMARK  200  A    between atoms: _483  and  _485
REMARK  201  A    between atoms: _485  and  _486
REMARK  202  A    between atoms: _485  and  _488
REMARK  203  A    between atoms: _491  and  _493
REMARK  204  A    between atoms: _493  and  _494
REMARK  205  A    between atoms: _493  and  _496
REMARK  206  A    between atoms: _496  and  _497
REMARK  207  A    between atoms: _502  and  _504
REMARK  208  A    between atoms: _504  and  _505
REMARK  209  A    between atoms: _504  and  _507
REMARK  210  A    between atoms: _507  and  _508
REMARK  211  A    between atoms: _511  and  _513
REMARK  212  A    between atoms: _513  and  _514
REMARK  213  A    between atoms: _513  and  _516
REMARK  214  A    between atoms: _516  and  _517
REMARK  215  A    between atoms: _520  and  _522
REMARK  216  A    between atoms: _522  and  _523
REMARK  217  A    between atoms: _525  and  _527
REMARK  218  A    between atoms: _527  and  _528
REMARK  219  A    between atoms: _527  and  _530
REMARK  220  A    between atoms: _530  and  _531
REMARK  221  A    between atoms: _531  and  _532
REMARK  222  A    between atoms: _532  and  _533
REMARK                            x       y       z     vdW  Elec       q    Type
REMARK                         _______ _______ _______ _____ _____    ______ ____
ROOT
ATOM      1  O   HOH     1      14.109  16.173  11.371  0.00  0.00    +0.000 OA
ENDROOT
TORSDOF 0
REMARK  Name = ../refined-set-2016/2bpv/2bpv_pocket.pdb
REMARK  222 active torsions:
REMARK  status: ('A' for Active; 'I' for Inactive)
REMARK    1  A    between atoms: _1  and  _3
REMARK    2  A    between atoms: _3  and  _4
REMARK    3  A    between atoms: _3  and  _6
REMARK    4  A    between atoms: _6  and  _7
REMARK    5  A    between atoms: _7  and  _8
REMARK    6  A    between atoms: _8  and  _9
REMARK    7  A    between atoms: _18  and  _20
REMARK    8  A    between atoms: _20  and  _21
REMARK    9  A    between atoms: _20  and  _23
REMARK   10  A    between atoms: _23  and  _24
REMARK   11  A    between atoms: _27  and  _29
REMARK   12  A    between atoms: _29  and  _30
REMARK   13  A    between atoms: _29  and  _32
REMARK   14  A    between atoms: _32  and  _33
REMARK   15  A    between atoms: _36  and  _38
REMARK   16  A    between atoms: _38  and  _39
REMARK   17  A    between atoms: _38  and  _41
REMARK   18  A    between atoms: _41  and  _42
REMARK   19  A    between atoms: _45  and  _47
REMARK   20  A    between atoms: _47  and  _48
REMARK   21  A    between atoms: _47  and  _50
REMARK   22  A    between atoms: _50  and  _51
REMARK   23  A    between atoms: _54  and  _56
REMARK   24  A    between atoms: _56  and  _57
REMARK   25  A    between atoms: _56  and  _59
REMARK   26  A    between atoms: _59  and  _60
REMARK   27  A    between atoms: _63  and  _65
REMARK   28  A    between atoms: _65  and  _66
REMARK   29  A    between atoms: _68  and  _70
REMARK   30  A    between atoms: _70  and  _71
REMARK   31  A    between atoms: _74  and  _76
REMARK   32  A    between atoms: _76  and  _77
REMARK   33  A    between atoms: _76  and  _79
REMARK   34  A    between atoms: _79  and  _80
REMARK   35  A    between atoms: _83  and  _85
REMARK   36  A    between atoms: _85  and  _86
REMARK   37  A    between atoms: _85  and  _88
REMARK   38  A    between atoms: _88  and  _89
REMARK   39  A    between atoms: _92  and  _94
REMARK   40  A    between atoms: _94  and  _95
REMARK   41  A    between atoms: _94  and  _97
REMARK   42  A    between atoms: _97  and  _98
REMARK   43  A    between atoms: _101  and  _103
REMARK   44  A    between atoms: _103  and  _104
REMARK   45  A    between atoms: _103  and  _106
REMARK   46  A    between atoms: _109  and  _111
REMARK   47  A    between atoms: _111  and  _112
REMARK   48  A    between atoms: _111  and  _114
REMARK   49  A    between atoms: _114  and  _115
REMARK   50  A    between atoms: _115  and  _116
REMARK   51  A    between atoms: _118  and  _120
REMARK   52  A    between atoms: _120  and  _121
REMARK   53  A    between atoms: _120  and  _123
REMARK   54  A    between atoms: _123  and  _124
REMARK   55  A    between atoms: _127  and  _129
REMARK   56  A    between atoms: _129  and  _130
REMARK   57  A    between atoms: _132  and  _134
REMARK   58  A    between atoms: _134  and  _135
REMARK   59  A    between atoms: _137  and  _139
REMARK   60  A    between atoms: _139  and  _140
REMARK   61  A    between atoms: _139  and  _142
REMARK   62  A    between atoms: _142  and  _143
REMARK   63  A    between atoms: _146  and  _148
REMARK   64  A    between atoms: _148  and  _149
REMARK   65  A    between atoms: _151  and  _153
REMARK   66  A    between atoms: _153  and  _154
REMARK   67  A    between atoms: _156  and  _158
REMARK   68  A    between atoms: _158  and  _159
REMARK   69  A    between atoms: _158  and  _161
REMARK   70  A    between atoms: _161  and  _162
REMARK   71  A    between atoms: _168  and  _170
REMARK   72  A    between atoms: _170  and  _171
REMARK   73  A    between atoms: _170  and  _173
REMARK   74  A    between atoms: _173  and  _174
REMARK   75  A    between atoms: _177  and  _179
REMARK   76  A    between atoms: _179  and  _180
REMARK   77  A    between atoms: _179  and  _182
REMARK   78  A    between atoms: _185  and  _187
REMARK   79  A    between atoms: _187  and  _188
REMARK   80  A    between atoms: _187  and  _190
REMARK   81  A    between atoms: _190  and  _191
REMARK   82  A    between atoms: _194  and  _196
REMARK   83  A    between atoms: _196  and  _197
REMARK   84  A    between atoms: _196  and  _199
REMARK   85  A    between atoms: _199  and  _200
REMARK   86  A    between atoms: _204  and  _205
REMARK   87  A    between atoms: _210  and  _212
REMARK   88  A    between atoms: _212  and  _213
REMARK   89  A    between atoms: _212  and  _215
REMARK   90  A    between atoms: _218  and  _220
REMARK   91  A    between atoms: _220  and  _221
REMARK   92  A    between atoms: _220  and  _223
REMARK   93  A    between atoms: _223  and  _224
REMARK   94  A    between atoms: _229  and  _231
REMARK   95  A    between atoms: _231  and  _232
REMARK   96  A    between atoms: _231  and  _234
REMARK   97  A    between atoms: _234  and  _235
REMARK   98  A    between atoms: _238  and  _240
REMARK   99  A    between atoms: _240  and  _241
REMARK  100  A    between atoms: _240  and  _243
REMARK  101  A    between atoms: _243  and  _244
REMARK  102  A    between atoms: _247  and  _249
REMARK  103  A    between atoms: _249  and  _250
REMARK  104  A    between atoms: _252  and  _254
REMARK  105  A    between atoms: _254  and  _255
REMARK  106  A    between atoms: _254  and  _257
REMARK  107  A    between atoms: _257  and  _258
REMARK  108  A    between atoms: _258  and  _259
REMARK  109  A    between atoms: _259  and  _260
REMARK  110  A    between atoms: _269  and  _271
REMARK  111  A    between atoms: _271  and  _272
REMARK  112  A    between atoms: _271  and  _274
REMARK  113  A    between atoms: _274  and  _275
REMARK  114  A    between atoms: _275  and  _276
REMARK  115  A    between atoms: _276  and  _277
REMARK  116  A    between atoms: _286  and  _288
REMARK  117  A    between atoms: _288  and  _289
REMARK  118  A    between atoms: _288  and  _291
REMARK  119  A    between atoms: _291  and  _292
REMARK  120  A    between atoms: _295  and  _297
REMARK  121  A    between atoms: _297  and  _298
REMARK  122  A    between atoms: _297  and  _300
REMARK  123  A    between atoms: _300  and  _301
REMARK  124  A    between atoms: _304  and  _306
REMARK  125  A    between atoms: _306  and  _307
REMARK  126  A    between atoms: _306  and  _309
REMARK  127  A    between atoms: _309  and  _310
REMARK  128  A    between atoms: _313  and  _315
REMARK  129  A    between atoms: _315  and  _316
REMARK  130  A    between atoms: _315  and  _318
REMARK  131  A    between atoms: _318  and  _319
REMARK  132  A    between atoms: _322  and  _324
REMARK  133  A    between atoms: _324  and  _325
REMARK  134  A    between atoms: _324  and  _327
REMARK  135  A    between atoms: _327  and  _328
REMARK  136  A    between atoms: _331  and  _333
REMARK  137  A    between atoms: _333  and  _334
REMARK  138  A    between atoms: _336  and  _338
REMARK  139  A    between atoms: _338  and  _339
REMARK  140  A    between atoms: _342  and  _344
REMARK  141  A    between atoms: _344  and  _345
REMARK  142  A    between atoms: _344  and  _347
REMARK  143  A    between atoms: _347  and  _348
REMARK  144  A    between atoms: _351  and  _353
REMARK  145  A    between atoms: _353  and  _354
REMARK  146  A    between atoms: _353  and  _356
REMARK  147  A    between atoms: _356  and  _357
REMARK  148  A    between atoms: _360  and  _362
REMARK  149  A    between atoms: _362  and  _363
REMARK  150  A    between atoms: _362  and  _365
REMARK  151  A    between atoms: _365  and  _366
REMARK  152  A    between atoms: _369  and  _371
REMARK  153  A    between atoms: _371  and  _372
REMARK  154  A    between atoms: _371  and  _374
REMARK  155  A    between atoms: _377  and  _379
REMARK  156  A    between atoms: _379  and  _380
REMARK  157  A    between atoms: _379  and  _382
REMARK  158  A    between atoms: _382  and  _383
REMARK  159  A    between atoms: _383  and  _384
REMARK  160  A    between atoms: _384  and  _385
REMARK  161  A    between atoms: _385  and  _386
REMARK  162  A    between atoms: _390  and  _392
REMARK  163  A    between atoms: _392  and  _393
REMARK  164  A    between atoms: _392  and  _395
REMARK  165  A    between atoms: _395  and  _396
REMARK  166  A    between atoms: _396  and  _397
REMARK  167  A    between atoms: _399  and  _401
REMARK  168  A    between atoms: _401  and  _402
REMARK  169  A    between atoms: _401  and  _404
REMARK  170  A    between atoms: _404  and  _405
REMARK  171  A    between atoms: _408  and  _410
REMARK  172  A    between atoms: _410  and  _411
REMARK  173  A    between atoms: _413  and  _415
REMARK  174  A    between atoms: _415  and  _416
REMARK  175  A    between atoms: _418  and  _420
REMARK  176  A    between atoms: _420  and  _421
REMARK  177  A    between atoms: _420  and  _423
REMARK  178  A    between atoms: _423  and  _424
REMARK  179  A    between atoms: _427  and  _429
REMARK  180  A    between atoms: _429  and  _430
REMARK  181  A    between atoms: _432  and  _434
REMARK  182  A    between atoms: _434  and  _435
REMARK  183  A    between atoms: _437  and  _439
REMARK  184  A    between atoms: _439  and  _440
REMARK  185  A    between atoms: _439  and  _442
REMARK  186  A    between atoms: _442  and  _443
REMARK  187  A    between atoms: _449  and  _451
REMARK  188  A    between atoms: _451  and  _452
REMARK  189  A    between atoms: _451  and  _454
REMARK  190  A    between atoms: _454  and  _455
REMARK  191  A    between atoms: _458  and  _460
REMARK  192  A    between atoms: _460  and  _461
REMARK  193  A    between atoms: _460  and  _463
REMARK  194  A    between atoms: _463  and  _464
REMARK  195  A    between atoms: _467  and  _469
REMARK  196  A    between atoms: _469  and  _470
REMARK  197  A    between atoms: _469  and  _472
REMARK  198  A    between atoms: _472  and  _473
REMARK  199  A    between atoms: _477  and  _478
REMARK  200  A    between atoms: _483  and  _485
REMARK  201  A    between atoms: _485  and  _486
REMARK  202  A    between atoms: _485  and  _488
REMARK  203  A    between atoms: _491  and  _493
REMARK  204  A    between atoms: _493  and  _494
REMARK  205  A    between atoms: _493  and  _496
REMARK  206  A    between atoms: _496  and  _497
REMARK  207  A    between atoms: _502  and  _504
REMARK  208  A    between atoms: _504  and  _505
REMARK  209  A    between atoms: _504  and  _507
REMARK  210  A    between atoms: _507  and  _508
REMARK  211  A    between atoms: _511  and  _513
REMARK  212  A    between atoms: _513  and  _514
REMARK  213  A    between atoms: _513  and  _516
REMARK  214  A    between atoms: _516  and  _517
REMARK  215  A    between atoms: _520  and  _522
REMARK  216  A    between atoms: _522  and  _523
REMARK  217  A    between atoms: _525  and  _527
REMARK  218  A    between atoms: _527  and  _528
REMARK  219  A    between atoms: _527  and  _530
REMARK  220  A    between atoms: _530  and  _531
REMARK  221  A    between atoms: _531  and  _532
REMARK  222  A    between atoms: _532  and  _533
REMARK                            x       y       z     vdW  Elec       q    Type
REMARK                         _______ _______ _______ _____ _____    ______ ____
ROOT
ATOM      1  O   HOH     1       7.692  27.435  -0.678  0.00  0.00    +0.000 OA
ENDROOT
TORSDOF 0
REMARK  Name = ../refined-set-2016/2bpv/2bpv_pocket.pdb
REMARK  222 active torsions:
REMARK  status: ('A' for Active; 'I' for Inactive)
REMARK    1  A    between atoms: _1  and  _3
REMARK    2  A    between atoms: _3  and  _4
REMARK    3  A    between atoms: _3  and  _6
REMARK    4  A    between atoms: _6  and  _7
REMARK    5  A    between atoms: _7  and  _8
REMARK    6  A    between atoms: _8  and  _9
REMARK    7  A    between atoms: _18  and  _20
REMARK    8  A    between atoms: _20  and  _21
REMARK    9  A    between atoms: _20  and  _23
REMARK   10  A    between atoms: _23  and  _24
REMARK   11  A    between atoms: _27  and  _29
REMARK   12  A    between atoms: _29  and  _30
REMARK   13  A    between atoms: _29  and  _32
REMARK   14  A    between atoms: _32  and  _33
REMARK   15  A    between atoms: _36  and  _38
REMARK   16  A    between atoms: _38  and  _39
REMARK   17  A    between atoms: _38  and  _41
REMARK   18  A    between atoms: _41  and  _42
REMARK   19  A    between atoms: _45  and  _47
REMARK   20  A    between atoms: _47  and  _48
REMARK   21  A    between atoms: _47  and  _50
REMARK   22  A    between atoms: _50  and  _51
REMARK   23  A    between atoms: _54  and  _56
REMARK   24  A    between atoms: _56  and  _57
REMARK   25  A    between atoms: _56  and  _59
REMARK   26  A    between atoms: _59  and  _60
REMARK   27  A    between atoms: _63  and  _65
REMARK   28  A    between atoms: _65  and  _66
REMARK   29  A    between atoms: _68  and  _70
REMARK   30  A    between atoms: _70  and  _71
REMARK   31  A    between atoms: _74  and  _76
REMARK   32  A    between atoms: _76  and  _77
REMARK   33  A    between atoms: _76  and  _79
REMARK   34  A    between atoms: _79  and  _80
REMARK   35  A    between atoms: _83  and  _85
REMARK   36  A    between atoms: _85  and  _86
REMARK   37  A    between atoms: _85  and  _88
REMARK   38  A    between atoms: _88  and  _89
REMARK   39  A    between atoms: _92  and  _94
REMARK   40  A    between atoms: _94  and  _95
REMARK   41  A    between atoms: _94  and  _97
REMARK   42  A    between atoms: _97  and  _98
REMARK   43  A    between atoms: _101  and  _103
REMARK   44  A    between atoms: _103  and  _104
REMARK   45  A    between atoms: _103  and  _106
REMARK   46  A    between atoms: _109  and  _111
REMARK   47  A    between atoms: _111  and  _112
REMARK   48  A    between atoms: _111  and  _114
REMARK   49  A    between atoms: _114  and  _115
REMARK   50  A    between atoms: _115  and  _116
REMARK   51  A    between atoms: _118  and  _120
REMARK   52  A    between atoms: _120  and  _121
REMARK   53  A    between atoms: _120  and  _123
REMARK   54  A    between atoms: _123  and  _124
REMARK   55  A    between atoms: _127  and  _129
REMARK   56  A    between atoms: _129  and  _130
REMARK   57  A    between atoms: _132  and  _134
REMARK   58  A    between atoms: _134  and  _135
REMARK   59  A    between atoms: _137  and  _139
REMARK   60  A    between atoms: _139  and  _140
REMARK   61  A    between atoms: _139  and  _142
REMARK   62  A    between atoms: _142  and  _143
REMARK   63  A    between atoms: _146  and  _148
REMARK   64  A    between atoms: _148  and  _149
REMARK   65  A    between atoms: _151  and  _153
REMARK   66  A    between atoms: _153  and  _154
REMARK   67  A    between atoms: _156  and  _158
REMARK   68  A    between atoms: _158  and  _159
REMARK   69  A    between atoms: _158  and  _161
REMARK   70  A    between atoms: _161  and  _162
REMARK   71  A    between atoms: _168  and  _170
REMARK   72  A    between atoms: _170  and  _171
REMARK   73  A    between atoms: _170  and  _173
REMARK   74  A    between atoms: _173  and  _174
REMARK   75  A    between atoms: _177  and  _179
REMARK   76  A    between atoms: _179  and  _180
REMARK   77  A    between atoms: _179  and  _182
REMARK   78  A    between atoms: _185  and  _187
REMARK   79  A    between atoms: _187  and  _188
REMARK   80  A    between atoms: _187  and  _190
REMARK   81  A    between atoms: _190  and  _191
REMARK   82  A    between atoms: _194  and  _196
REMARK   83  A    between atoms: _196  and  _197
REMARK   84  A    between atoms: _196  and  _199
REMARK   85  A    between atoms: _199  and  _200
REMARK   86  A    between atoms: _204  and  _205
REMARK   87  A    between atoms: _210  and  _212
REMARK   88  A    between atoms: _212  and  _213
REMARK   89  A    between atoms: _212  and  _215
REMARK   90  A    between atoms: _218  and  _220
REMARK   91  A    between atoms: _220  and  _221
REMARK   92  A    between atoms: _220  and  _223
REMARK   93  A    between atoms: _223  and  _224
REMARK   94  A    between atoms: _229  and  _231
REMARK   95  A    between atoms: _231  and  _232
REMARK   96  A    between atoms: _231  and  _234
REMARK   97  A    between atoms: _234  and  _235
REMARK   98  A    between atoms: _238  and  _240
REMARK   99  A    between atoms: _240  and  _241
REMARK  100  A    between atoms: _240  and  _243
REMARK  101  A    between atoms: _243  and  _244
REMARK  102  A    between atoms: _247  and  _249
REMARK  103  A    between atoms: _249  and  _250
REMARK  104  A    between atoms: _252  and  _254
REMARK  105  A    between atoms: _254  and  _255
REMARK  106  A    between atoms: _254  and  _257
REMARK  107  A    between atoms: _257  and  _258
REMARK  108  A    between atoms: _258  and  _259
REMARK  109  A    between atoms: _259  and  _260
REMARK  110  A    between atoms: _269  and  _271
REMARK  111  A    between atoms: _271  and  _272
REMARK  112  A    between atoms: _271  and  _274
REMARK  113  A    between atoms: _274  and  _275
REMARK  114  A    between atoms: _275  and  _276
REMARK  115  A    between atoms: _276  and  _277
REMARK  116  A    between atoms: _286  and  _288
REMARK  117  A    between atoms: _288  and  _289
REMARK  118  A    between atoms: _288  and  _291
REMARK  119  A    between atoms: _291  and  _292
REMARK  120  A    between atoms: _295  and  _297
REMARK  121  A    between atoms: _297  and  _298
REMARK  122  A    between atoms: _297  and  _300
REMARK  123  A    between atoms: _300  and  _301
REMARK  124  A    between atoms: _304  and  _306
REMARK  125  A    between atoms: _306  and  _307
REMARK  126  A    between atoms: _306  and  _309
REMARK  127  A    between atoms: _309  and  _310
REMARK  128  A    between atoms: _313  and  _315
REMARK  129  A    between atoms: _315  and  _316
REMARK  130  A    between atoms: _315  and  _318
REMARK  131  A    between atoms: _318  and  _319
REMARK  132  A    between atoms: _322  and  _324
REMARK  133  A    between atoms: _324  and  _325
REMARK  134  A    between atoms: _324  and  _327
REMARK  135  A    between atoms: _327  and  _328
REMARK  136  A    between atoms: _331  and  _333
REMARK  137  A    between atoms: _333  and  _334
REMARK  138  A    between atoms: _336  and  _338
REMARK  139  A    between atoms: _338  and  _339
REMARK  140  A    between atoms: _342  and  _344
REMARK  141  A    between atoms: _344  and  _345
REMARK  142  A    between atoms: _344  and  _347
REMARK  143  A    between atoms: _347  and  _348
REMARK  144  A    between atoms: _351  and  _353
REMARK  145  A    between atoms: _353  and  _354
REMARK  146  A    between atoms: _353  and  _356
REMARK  147  A    between atoms: _356  and  _357
REMARK  148  A    between atoms: _360  and  _362
REMARK  149  A    between atoms: _362  and  _363
REMARK  150  A    between atoms: _362  and  _365
REMARK  151  A    between atoms: _365  and  _366
REMARK  152  A    between atoms: _369  and  _371
REMARK  153  A    between atoms: _371  and  _372
REMARK  154  A    between atoms: _371  and  _374
REMARK  155  A    between atoms: _377  and  _379
REMARK  156  A    between atoms: _379  and  _380
REMARK  157  A    between atoms: _379  and  _382
REMARK  158  A    between atoms: _382  and  _383
REMARK  159  A    between atoms: _383  and  _384
REMARK  160  A    between atoms: _384  and  _385
REMARK  161  A    between atoms: _385  and  _386
REMARK  162  A    between atoms: _390  and  _392
REMARK  163  A    between atoms: _392  and  _393
REMARK  164  A    between atoms: _392  and  _395
REMARK  165  A    between atoms: _395  and  _396
REMARK  166  A    between atoms: _396  and  _397
REMARK  167  A    between atoms: _399  and  _401
REMARK  168  A    between atoms: _401  and  _402
REMARK  169  A    between atoms: _401  and  _404
REMARK  170  A    between atoms: _404  and  _405
REMARK  171  A    between atoms: _408  and  _410
REMARK  172  A    between atoms: _410  and  _411
REMARK  173  A    between atoms: _413  and  _415
REMARK  174  A    between atoms: _415  and  _416
REMARK  175  A    between atoms: _418  and  _420
REMARK  176  A    between atoms: _420  and  _421
REMARK  177  A    between atoms: _420  and  _423
REMARK  178  A    between atoms: _423  and  _424
REMARK  179  A    between atoms: _427  and  _429
REMARK  180  A    between atoms: _429  and  _430
REMARK  181  A    between atoms: _432  and  _434
REMARK  182  A    between atoms: _434  and  _435
REMARK  183  A    between atoms: _437  and  _439
REMARK  184  A    between atoms: _439  and  _440
REMARK  185  A    between atoms: _439  and  _442
REMARK  186  A    between atoms: _442  and  _443
REMARK  187  A    between atoms: _449  and  _451
REMARK  188  A    between atoms: _451  and  _452
REMARK  189  A    between atoms: _451  and  _454
REMARK  190  A    between atoms: _454  and  _455
REMARK  191  A    between atoms: _458  and  _460
REMARK  192  A    between atoms: _460  and  _461
REMARK  193  A    between atoms: _460  and  _463
REMARK  194  A    between atoms: _463  and  _464
REMARK  195  A    between atoms: _467  and  _469
REMARK  196  A    between atoms: _469  and  _470
REMARK  197  A    between atoms: _469  and  _472
REMARK  198  A    between atoms: _472  and  _473
REMARK  199  A    between atoms: _477  and  _478
REMARK  200  A    between atoms: _483  and  _485
REMARK  201  A    between atoms: _485  and  _486
REMARK  202  A    between atoms: _485  and  _488
REMARK  203  A    between atoms: _491  and  _493
REMARK  204  A    between atoms: _493  and  _494
REMARK  205  A    between atoms: _493  and  _496
REMARK  206  A    between atoms: _496  and  _497
REMARK  207  A    between atoms: _502  and  _504
REMARK  208  A    between atoms: _504  and  _505
REMARK  209  A    between atoms: _504  and  _507
REMARK  210  A    between atoms: _507  and  _508
REMARK  211  A    between atoms: _511  and  _513
REMARK  212  A    between atoms: _513  and  _514
REMARK  213  A    between atoms: _513  and  _516
REMARK  214  A    between atoms: _516  and  _517
REMARK  215  A    between atoms: _520  and  _522
REMARK  216  A    between atoms: _522  and  _523
REMARK  217  A    between atoms: _525  and  _527
REMARK  218  A    between atoms: _527  and  _528
REMARK  219  A    between atoms: _527  and  _530
REMARK  220  A    between atoms: _530  and  _531
REMARK  221  A    between atoms: _531  and  _532
REMARK  222  A    between atoms: _532  and  _533
REMARK                            x       y       z     vdW  Elec       q    Type
REMARK                         _______ _______ _______ _____ _____    ______ ____
ROOT
ATOM      1  O   HOH     1      18.237  16.128   8.068  0.00  0.00    +0.000 OA
ENDROOT
TORSDOF 0
REMARK  Name = ../refined-set-2016/2bpv/2bpv_pocket.pdb
REMARK  222 active torsions:
REMARK  status: ('A' for Active; 'I' for Inactive)
REMARK    1  A    between atoms: _1  and  _3
REMARK    2  A    between atoms: _3  and  _4
REMARK    3  A    between atoms: _3  and  _6
REMARK    4  A    between atoms: _6  and  _7
REMARK    5  A    between atoms: _7  and  _8
REMARK    6  A    between atoms: _8  and  _9
REMARK    7  A    between atoms: _18  and  _20
REMARK    8  A    between atoms: _20  and  _21
REMARK    9  A    between atoms: _20  and  _23
REMARK   10  A    between atoms: _23  and  _24
REMARK   11  A    between atoms: _27  and  _29
REMARK   12  A    between atoms: _29  and  _30
REMARK   13  A    between atoms: _29  and  _32
REMARK   14  A    between atoms: _32  and  _33
REMARK   15  A    between atoms: _36  and  _38
REMARK   16  A    between atoms: _38  and  _39
REMARK   17  A    between atoms: _38  and  _41
REMARK   18  A    between atoms: _41  and  _42
REMARK   19  A    between atoms: _45  and  _47
REMARK   20  A    between atoms: _47  and  _48
REMARK   21  A    between atoms: _47  and  _50
REMARK   22  A    between atoms: _50  and  _51
REMARK   23  A    between atoms: _54  and  _56
REMARK   24  A    between atoms: _56  and  _57
REMARK   25  A    between atoms: _56  and  _59
REMARK   26  A    between atoms: _59  and  _60
REMARK   27  A    between atoms: _63  and  _65
REMARK   28  A    between atoms: _65  and  _66
REMARK   29  A    between atoms: _68  and  _70
REMARK   30  A    between atoms: _70  and  _71
REMARK   31  A    between atoms: _74  and  _76
REMARK   32  A    between atoms: _76  and  _77
REMARK   33  A    between atoms: _76  and  _79
REMARK   34  A    between atoms: _79  and  _80
REMARK   35  A    between atoms: _83  and  _85
REMARK   36  A    between atoms: _85  and  _86
REMARK   37  A    between atoms: _85  and  _88
REMARK   38  A    between atoms: _88  and  _89
REMARK   39  A    between atoms: _92  and  _94
REMARK   40  A    between atoms: _94  and  _95
REMARK   41  A    between atoms: _94  and  _97
REMARK   42  A    between atoms: _97  and  _98
REMARK   43  A    between atoms: _101  and  _103
REMARK   44  A    between atoms: _103  and  _104
REMARK   45  A    between atoms: _103  and  _106
REMARK   46  A    between atoms: _109  and  _111
REMARK   47  A    between atoms: _111  and  _112
REMARK   48  A    between atoms: _111  and  _114
REMARK   49  A    between atoms: _114  and  _115
REMARK   50  A    between atoms: _115  and  _116
REMARK   51  A    between atoms: _118  and  _120
REMARK   52  A    between atoms: _120  and  _121
REMARK   53  A    between atoms: _120  and  _123
REMARK   54  A    between atoms: _123  and  _124
REMARK   55  A    between atoms: _127  and  _129
REMARK   56  A    between atoms: _129  and  _130
REMARK   57  A    between atoms: _132  and  _134
REMARK   58  A    between atoms: _134  and  _135
REMARK   59  A    between atoms: _137  and  _139
REMARK   60  A    between atoms: _139  and  _140
REMARK   61  A    between atoms: _139  and  _142
REMARK   62  A    between atoms: _142  and  _143
REMARK   63  A    between atoms: _146  and  _148
REMARK   64  A    between atoms: _148  and  _149
REMARK   65  A    between atoms: _151  and  _153
REMARK   66  A    between atoms: _153  and  _154
REMARK   67  A    between atoms: _156  and  _158
REMARK   68  A    between atoms: _158  and  _159
REMARK   69  A    between atoms: _158  and  _161
REMARK   70  A    between atoms: _161  and  _162
REMARK   71  A    between atoms: _168  and  _170
REMARK   72  A    between atoms: _170  and  _171
REMARK   73  A    between atoms: _170  and  _173
REMARK   74  A    between atoms: _173  and  _174
REMARK   75  A    between atoms: _177  and  _179
REMARK   76  A    between atoms: _179  and  _180
REMARK   77  A    between atoms: _179  and  _182
REMARK   78  A    between atoms: _185  and  _187
REMARK   79  A    between atoms: _187  and  _188
REMARK   80  A    between atoms: _187  and  _190
REMARK   81  A    between atoms: _190  and  _191
REMARK   82  A    between atoms: _194  and  _196
REMARK   83  A    between atoms: _196  and  _197
REMARK   84  A    between atoms: _196  and  _199
REMARK   85  A    between atoms: _199  and  _200
REMARK   86  A    between atoms: _204  and  _205
REMARK   87  A    between atoms: _210  and  _212
REMARK   88  A    between atoms: _212  and  _213
REMARK   89  A    between atoms: _212  and  _215
REMARK   90  A    between atoms: _218  and  _220
REMARK   91  A    between atoms: _220  and  _221
REMARK   92  A    between atoms: _220  and  _223
REMARK   93  A    between atoms: _223  and  _224
REMARK   94  A    between atoms: _229  and  _231
REMARK   95  A    between atoms: _231  and  _232
REMARK   96  A    between atoms: _231  and  _234
REMARK   97  A    between atoms: _234  and  _235
REMARK   98  A    between atoms: _238  and  _240
REMARK   99  A    between atoms: _240  and  _241
REMARK  100  A    between atoms: _240  and  _243
REMARK  101  A    between atoms: _243  and  _244
REMARK  102  A    between atoms: _247  and  _249
REMARK  103  A    between atoms: _249  and  _250
REMARK  104  A    between atoms: _252  and  _254
REMARK  105  A    between atoms: _254  and  _255
REMARK  106  A    between atoms: _254  and  _257
REMARK  107  A    between atoms: _257  and  _258
REMARK  108  A    between atoms: _258  and  _259
REMARK  109  A    between atoms: _259  and  _260
REMARK  110  A    between atoms: _269  and  _271
REMARK  111  A    between atoms: _271  and  _272
REMARK  112  A    between atoms: _271  and  _274
REMARK  113  A    between atoms: _274  and  _275
REMARK  114  A    between atoms: _275  and  _276
REMARK  115  A    between atoms: _276  and  _277
REMARK  116  A    between atoms: _286  and  _288
REMARK  117  A    between atoms: _288  and  _289
REMARK  118  A    between atoms: _288  and  _291
REMARK  119  A    between atoms: _291  and  _292
REMARK  120  A    between atoms: _295  and  _297
REMARK  121  A    between atoms: _297  and  _298
REMARK  122  A    between atoms: _297  and  _300
REMARK  123  A    between atoms: _300  and  _301
REMARK  124  A    between atoms: _304  and  _306
REMARK  125  A    between atoms: _306  and  _307
REMARK  126  A    between atoms: _306  and  _309
REMARK  127  A    between atoms: _309  and  _310
REMARK  128  A    between atoms: _313  and  _315
REMARK  129  A    between atoms: _315  and  _316
REMARK  130  A    between atoms: _315  and  _318
REMARK  131  A    between atoms: _318  and  _319
REMARK  132  A    between atoms: _322  and  _324
REMARK  133  A    between atoms: _324  and  _325
REMARK  134  A    between atoms: _324  and  _327
REMARK  135  A    between atoms: _327  and  _328
REMARK  136  A    between atoms: _331  and  _333
REMARK  137  A    between atoms: _333  and  _334
REMARK  138  A    between atoms: _336  and  _338
REMARK  139  A    between atoms: _338  and  _339
REMARK  140  A    between atoms: _342  and  _344
REMARK  141  A    between atoms: _344  and  _345
REMARK  142  A    between atoms: _344  and  _347
REMARK  143  A    between atoms: _347  and  _348
REMARK  144  A    between atoms: _351  and  _353
REMARK  145  A    between atoms: _353  and  _354
REMARK  146  A    between atoms: _353  and  _356
REMARK  147  A    between atoms: _356  and  _357
REMARK  148  A    between atoms: _360  and  _362
REMARK  149  A    between atoms: _362  and  _363
REMARK  150  A    between atoms: _362  and  _365
REMARK  151  A    between atoms: _365  and  _366
REMARK  152  A    between atoms: _369  and  _371
REMARK  153  A    between atoms: _371  and  _372
REMARK  154  A    between atoms: _371  and  _374
REMARK  155  A    between atoms: _377  and  _379
REMARK  156  A    between atoms: _379  and  _380
REMARK  157  A    between atoms: _379  and  _382
REMARK  158  A    between atoms: _382  and  _383
REMARK  159  A    between atoms: _383  and  _384
REMARK  160  A    between atoms: _384  and  _385
REMARK  161  A    between atoms: _385  and  _386
REMARK  162  A    between atoms: _390  and  _392
REMARK  163  A    between atoms: _392  and  _393
REMARK  164  A    between atoms: _392  and  _395
REMARK  165  A    between atoms: _395  and  _396
REMARK  166  A    between atoms: _396  and  _397
REMARK  167  A    between atoms: _399  and  _401
REMARK  168  A    between atoms: _401  and  _402
REMARK  169  A    between atoms: _401  and  _404
REMARK  170  A    between atoms: _404  and  _405
REMARK  171  A    between atoms: _408  and  _410
REMARK  172  A    between atoms: _410  and  _411
REMARK  173  A    between atoms: _413  and  _415
REMARK  174  A    between atoms: _415  and  _416
REMARK  175  A    between atoms: _418  and  _420
REMARK  176  A    between atoms: _420  and  _421
REMARK  177  A    between atoms: _420  and  _423
REMARK  178  A    between atoms: _423  and  _424
REMARK  179  A    between atoms: _427  and  _429
REMARK  180  A    between atoms: _429  and  _430
REMARK  181  A    between atoms: _432  and  _434
REMARK  182  A    between atoms: _434  and  _435
REMARK  183  A    between atoms: _437  and  _439
REMARK  184  A    between atoms: _439  and  _440
REMARK  185  A    between atoms: _439  and  _442
REMARK  186  A    between atoms: _442  and  _443
REMARK  187  A    between atoms: _449  and  _451
REMARK  188  A    between atoms: _451  and  _452
REMARK  189  A    between atoms: _451  and  _454
REMARK  190  A    between atoms: _454  and  _455
REMARK  191  A    between atoms: _458  and  _460
REMARK  192  A    between atoms: _460  and  _461
REMARK  193  A    between atoms: _460  and  _463
REMARK  194  A    between atoms: _463  and  _464
REMARK  195  A    between atoms: _467  and  _469
REMARK  196  A    between atoms: _469  and  _470
REMARK  197  A    between atoms: _469  and  _472
REMARK  198  A    between atoms: _472  and  _473
REMARK  199  A    between atoms: _477  and  _478
REMARK  200  A    between atoms: _483  and  _485
REMARK  201  A    between atoms: _485  and  _486
REMARK  202  A    between atoms: _485  and  _488
REMARK  203  A    between atoms: _491  and  _493
REMARK  204  A    between atoms: _493  and  _494
REMARK  205  A    between atoms: _493  and  _496
REMARK  206  A    between atoms: _496  and  _497
REMARK  207  A    between atoms: _502  and  _504
REMARK  208  A    between atoms: _504  and  _505
REMARK  209  A    between atoms: _504  and  _507
REMARK  210  A    between atoms: _507  and  _508
REMARK  211  A    between atoms: _511  and  _513
REMARK  212  A    between atoms: _513  and  _514
REMARK  213  A    between atoms: _513  and  _516
REMARK  214  A    between atoms: _516  and  _517
REMARK  215  A    between atoms: _520  and  _522
REMARK  216  A    between atoms: _522  and  _523
REMARK  217  A    between atoms: _525  and  _527
REMARK  218  A    between atoms: _527  and  _528
REMARK  219  A    between atoms: _527  and  _530
REMARK  220  A    between atoms: _530  and  _531
REMARK  221  A    between atoms: _531  and  _532
REMARK  222  A    between atoms: _532  and  _533
REMARK                            x       y       z     vdW  Elec       q    Type
REMARK                         _______ _______ _______ _____ _____    ______ ____
ROOT
ATOM      1  O   HOH     1      12.363  16.144  13.871  0.00  0.00    +0.000 OA
ENDROOT
TORSDOF 0
REMARK  Name = ../refined-set-2016/2bpv/2bpv_pocket.pdb
REMARK  222 active torsions:
REMARK  status: ('A' for Active; 'I' for Inactive)
REMARK    1  A    between atoms: _1  and  _3
REMARK    2  A    between atoms: _3  and  _4
REMARK    3  A    between atoms: _3  and  _6
REMARK    4  A    between atoms: _6  and  _7
REMARK    5  A    between atoms: _7  and  _8
REMARK    6  A    between atoms: _8  and  _9
REMARK    7  A    between atoms: _18  and  _20
REMARK    8  A    between atoms: _20  and  _21
REMARK    9  A    between atoms: _20  and  _23
REMARK   10  A    between atoms: _23  and  _24
REMARK   11  A    between atoms: _27  and  _29
REMARK   12  A    between atoms: _29  and  _30
REMARK   13  A    between atoms: _29  and  _32
REMARK   14  A    between atoms: _32  and  _33
REMARK   15  A    between atoms: _36  and  _38
REMARK   16  A    between atoms: _38  and  _39
REMARK   17  A    between atoms: _38  and  _41
REMARK   18  A    between atoms: _41  and  _42
REMARK   19  A    between atoms: _45  and  _47
REMARK   20  A    between atoms: _47  and  _48
REMARK   21  A    between atoms: _47  and  _50
REMARK   22  A    between atoms: _50  and  _51
REMARK   23  A    between atoms: _54  and  _56
REMARK   24  A    between atoms: _56  and  _57
REMARK   25  A    between atoms: _56  and  _59
REMARK   26  A    between atoms: _59  and  _60
REMARK   27  A    between atoms: _63  and  _65
REMARK   28  A    between atoms: _65  and  _66
REMARK   29  A    between atoms: _68  and  _70
REMARK   30  A    between atoms: _70  and  _71
REMARK   31  A    between atoms: _74  and  _76
REMARK   32  A    between atoms: _76  and  _77
REMARK   33  A    between atoms: _76  and  _79
REMARK   34  A    between atoms: _79  and  _80
REMARK   35  A    between atoms: _83  and  _85
REMARK   36  A    between atoms: _85  and  _86
REMARK   37  A    between atoms: _85  and  _88
REMARK   38  A    between atoms: _88  and  _89
REMARK   39  A    between atoms: _92  and  _94
REMARK   40  A    between atoms: _94  and  _95
REMARK   41  A    between atoms: _94  and  _97
REMARK   42  A    between atoms: _97  and  _98
REMARK   43  A    between atoms: _101  and  _103
REMARK   44  A    between atoms: _103  and  _104
REMARK   45  A    between atoms: _103  and  _106
REMARK   46  A    between atoms: _109  and  _111
REMARK   47  A    between atoms: _111  and  _112
REMARK   48  A    between atoms: _111  and  _114
REMARK   49  A    between atoms: _114  and  _115
REMARK   50  A    between atoms: _115  and  _116
REMARK   51  A    between atoms: _118  and  _120
REMARK   52  A    between atoms: _120  and  _121
REMARK   53  A    between atoms: _120  and  _123
REMARK   54  A    between atoms: _123  and  _124
REMARK   55  A    between atoms: _127  and  _129
REMARK   56  A    between atoms: _129  and  _130
REMARK   57  A    between atoms: _132  and  _134
REMARK   58  A    between atoms: _134  and  _135
REMARK   59  A    between atoms: _137  and  _139
REMARK   60  A    between atoms: _139  and  _140
REMARK   61  A    between atoms: _139  and  _142
REMARK   62  A    between atoms: _142  and  _143
REMARK   63  A    between atoms: _146  and  _148
REMARK   64  A    between atoms: _148  and  _149
REMARK   65  A    between atoms: _151  and  _153
REMARK   66  A    between atoms: _153  and  _154
REMARK   67  A    between atoms: _156  and  _158
REMARK   68  A    between atoms: _158  and  _159
REMARK   69  A    between atoms: _158  and  _161
REMARK   70  A    between atoms: _161  and  _162
REMARK   71  A    between atoms: _168  and  _170
REMARK   72  A    between atoms: _170  and  _171
REMARK   73  A    between atoms: _170  and  _173
REMARK   74  A    between atoms: _173  and  _174
REMARK   75  A    between atoms: _177  and  _179
REMARK   76  A    between atoms: _179  and  _180
REMARK   77  A    between atoms: _179  and  _182
REMARK   78  A    between atoms: _185  and  _187
REMARK   79  A    between atoms: _187  and  _188
REMARK   80  A    between atoms: _187  and  _190
REMARK   81  A    between atoms: _190  and  _191
REMARK   82  A    between atoms: _194  and  _196
REMARK   83  A    between atoms: _196  and  _197
REMARK   84  A    between atoms: _196  and  _199
REMARK   85  A    between atoms: _199  and  _200
REMARK   86  A    between atoms: _204  and  _205
REMARK   87  A    between atoms: _210  and  _212
REMARK   88  A    between atoms: _212  and  _213
REMARK   89  A    between atoms: _212  and  _215
REMARK   90  A    between atoms: _218  and  _220
REMARK   91  A    between atoms: _220  and  _221
REMARK   92  A    between atoms: _220  and  _223
REMARK   93  A    between atoms: _223  and  _224
REMARK   94  A    between atoms: _229  and  _231
REMARK   95  A    between atoms: _231  and  _232
REMARK   96  A    between atoms: _231  and  _234
REMARK   97  A    between atoms: _234  and  _235
REMARK   98  A    between atoms: _238  and  _240
REMARK   99  A    between atoms: _240  and  _241
REMARK  100  A    between atoms: _240  and  _243
REMARK  101  A    between atoms: _243  and  _244
REMARK  102  A    between atoms: _247  and  _249
REMARK  103  A    between atoms: _249  and  _250
REMARK  104  A    between atoms: _252  and  _254
REMARK  105  A    between atoms: _254  and  _255
REMARK  106  A    between atoms: _254  and  _257
REMARK  107  A    between atoms: _257  and  _258
REMARK  108  A    between atoms: _258  and  _259
REMARK  109  A    between atoms: _259  and  _260
REMARK  110  A    between atoms: _269  and  _271
REMARK  111  A    between atoms: _271  and  _272
REMARK  112  A    between atoms: _271  and  _274
REMARK  113  A    between atoms: _274  and  _275
REMARK  114  A    between atoms: _275  and  _276
REMARK  115  A    between atoms: _276  and  _277
REMARK  116  A    between atoms: _286  and  _288
REMARK  117  A    between atoms: _288  and  _289
REMARK  118  A    between atoms: _288  and  _291
REMARK  119  A    between atoms: _291  and  _292
REMARK  120  A    between atoms: _295  and  _297
REMARK  121  A    between atoms: _297  and  _298
REMARK  122  A    between atoms: _297  and  _300
REMARK  123  A    between atoms: _300  and  _301
REMARK  124  A    between atoms: _304  and  _306
REMARK  125  A    between atoms: _306  and  _307
REMARK  126  A    between atoms: _306  and  _309
REMARK  127  A    between atoms: _309  and  _310
REMARK  128  A    between atoms: _313  and  _315
REMARK  129  A    between atoms: _315  and  _316
REMARK  130  A    between atoms: _315  and  _318
REMARK  131  A    between atoms: _318  and  _319
REMARK  132  A    between atoms: _322  and  _324
REMARK  133  A    between atoms: _324  and  _325
REMARK  134  A    between atoms: _324  and  _327
REMARK  135  A    between atoms: _327  and  _328
REMARK  136  A    between atoms: _331  and  _333
REMARK  137  A    between atoms: _333  and  _334
REMARK  138  A    between atoms: _336  and  _338
REMARK  139  A    between atoms: _338  and  _339
REMARK  140  A    between atoms: _342  and  _344
REMARK  141  A    between atoms: _344  and  _345
REMARK  142  A    between atoms: _344  and  _347
REMARK  143  A    between atoms: _347  and  _348
REMARK  144  A    between atoms: _351  and  _353
REMARK  145  A    between atoms: _353  and  _354
REMARK  146  A    between atoms: _353  and  _356
REMARK  147  A    between atoms: _356  and  _357
REMARK  148  A    between atoms: _360  and  _362
REMARK  149  A    between atoms: _362  and  _363
REMARK  150  A    between atoms: _362  and  _365
REMARK  151  A    between atoms: _365  and  _366
REMARK  152  A    between atoms: _369  and  _371
REMARK  153  A    between atoms: _371  and  _372
REMARK  154  A    between atoms: _371  and  _374
REMARK  155  A    between atoms: _377  and  _379
REMARK  156  A    between atoms: _379  and  _380
REMARK  157  A    between atoms: _379  and  _382
REMARK  158  A    between atoms: _382  and  _383
REMARK  159  A    between atoms: _383  and  _384
REMARK  160  A    between atoms: _384  and  _385
REMARK  161  A    between atoms: _385  and  _386
REMARK  162  A    between atoms: _390  and  _392
REMARK  163  A    between atoms: _392  and  _393
REMARK  164  A    between atoms: _392  and  _395
REMARK  165  A    between atoms: _395  and  _396
REMARK  166  A    between atoms: _396  and  _397
REMARK  167  A    between atoms: _399  and  _401
REMARK  168  A    between atoms: _401  and  _402
REMARK  169  A    between atoms: _401  and  _404
REMARK  170  A    between atoms: _404  and  _405
REMARK  171  A    between atoms: _408  and  _410
REMARK  172  A    between atoms: _410  and  _411
REMARK  173  A    between atoms: _413  and  _415
REMARK  174  A    between atoms: _415  and  _416
REMARK  175  A    between atoms: _418  and  _420
REMARK  176  A    between atoms: _420  and  _421
REMARK  177  A    between atoms: _420  and  _423
REMARK  178  A    between atoms: _423  and  _424
REMARK  179  A    between atoms: _427  and  _429
REMARK  180  A    between atoms: _429  and  _430
REMARK  181  A    between atoms: _432  and  _434
REMARK  182  A    between atoms: _434  and  _435
REMARK  183  A    between atoms: _437  and  _439
REMARK  184  A    between atoms: _439  and  _440
REMARK  185  A    between atoms: _439  and  _442
REMARK  186  A    between atoms: _442  and  _443
REMARK  187  A    between atoms: _449  and  _451
REMARK  188  A    between atoms: _451  and  _452
REMARK  189  A    between atoms: _451  and  _454
REMARK  190  A    between atoms: _454  and  _455
REMARK  191  A    between atoms: _458  and  _460
REMARK  192  A    between atoms: _460  and  _461
REMARK  193  A    between atoms: _460  and  _463
REMARK  194  A    between atoms: _463  and  _464
REMARK  195  A    between atoms: _467  and  _469
REMARK  196  A    between atoms: _469  and  _470
REMARK  197  A    between atoms: _469  and  _472
REMARK  198  A    between atoms: _472  and  _473
REMARK  199  A    between atoms: _477  and  _478
REMARK  200  A    between atoms: _483  and  _485
REMARK  201  A    between atoms: _485  and  _486
REMARK  202  A    between atoms: _485  and  _488
REMARK  203  A    between atoms: _491  and  _493
REMARK  204  A    between atoms: _493  and  _494
REMARK  205  A    between atoms: _493  and  _496
REMARK  206  A    between atoms: _496  and  _497
REMARK  207  A    between atoms: _502  and  _504
REMARK  208  A    between atoms: _504  and  _505
REMARK  209  A    between atoms: _504  and  _507
REMARK  210  A    between atoms: _507  and  _508
REMARK  211  A    between atoms: _511  and  _513
REMARK  212  A    between atoms: _513  and  _514
REMARK  213  A    between atoms: _513  and  _516
REMARK  214  A    between atoms: _516  and  _517
REMARK  215  A    between atoms: _520  and  _522
REMARK  216  A    between atoms: _522  and  _523
REMARK  217  A    between atoms: _525  and  _527
REMARK  218  A    between atoms: _527  and  _528
REMARK  219  A    between atoms: _527  and  _530
REMARK  220  A    between atoms: _530  and  _531
REMARK  221  A    between atoms: _531  and  _532
REMARK  222  A    between atoms: _532  and  _533
REMARK                            x       y       z     vdW  Elec       q    Type
REMARK                         _______ _______ _______ _____ _____    ______ ____
ROOT
ATOM      1  O   HOH     1       3.311  26.593   7.522  0.00  0.00    +0.000 OA
ENDROOT
TORSDOF 0
REMARK  Name = ../refined-set-2016/2bpv/2bpv_pocket.pdb
REMARK  222 active torsions:
REMARK  status: ('A' for Active; 'I' for Inactive)
REMARK    1  A    between atoms: _1  and  _3
REMARK    2  A    between atoms: _3  and  _4
REMARK    3  A    between atoms: _3  and  _6
REMARK    4  A    between atoms: _6  and  _7
REMARK    5  A    between atoms: _7  and  _8
REMARK    6  A    between atoms: _8  and  _9
REMARK    7  A    between atoms: _18  and  _20
REMARK    8  A    between atoms: _20  and  _21
REMARK    9  A    between atoms: _20  and  _23
REMARK   10  A    between atoms: _23  and  _24
REMARK   11  A    between atoms: _27  and  _29
REMARK   12  A    between atoms: _29  and  _30
REMARK   13  A    between atoms: _29  and  _32
REMARK   14  A    between atoms: _32  and  _33
REMARK   15  A    between atoms: _36  and  _38
REMARK   16  A    between atoms: _38  and  _39
REMARK   17  A    between atoms: _38  and  _41
REMARK   18  A    between atoms: _41  and  _42
REMARK   19  A    between atoms: _45  and  _47
REMARK   20  A    between atoms: _47  and  _48
REMARK   21  A    between atoms: _47  and  _50
REMARK   22  A    between atoms: _50  and  _51
REMARK   23  A    between atoms: _54  and  _56
REMARK   24  A    between atoms: _56  and  _57
REMARK   25  A    between atoms: _56  and  _59
REMARK   26  A    between atoms: _59  and  _60
REMARK   27  A    between atoms: _63  and  _65
REMARK   28  A    between atoms: _65  and  _66
REMARK   29  A    between atoms: _68  and  _70
REMARK   30  A    between atoms: _70  and  _71
REMARK   31  A    between atoms: _74  and  _76
REMARK   32  A    between atoms: _76  and  _77
REMARK   33  A    between atoms: _76  and  _79
REMARK   34  A    between atoms: _79  and  _80
REMARK   35  A    between atoms: _83  and  _85
REMARK   36  A    between atoms: _85  and  _86
REMARK   37  A    between atoms: _85  and  _88
REMARK   38  A    between atoms: _88  and  _89
REMARK   39  A    between atoms: _92  and  _94
REMARK   40  A    between atoms: _94  and  _95
REMARK   41  A    between atoms: _94  and  _97
REMARK   42  A    between atoms: _97  and  _98
REMARK   43  A    between atoms: _101  and  _103
REMARK   44  A    between atoms: _103  and  _104
REMARK   45  A    between atoms: _103  and  _106
REMARK   46  A    between atoms: _109  and  _111
REMARK   47  A    between atoms: _111  and  _112
REMARK   48  A    between atoms: _111  and  _114
REMARK   49  A    between atoms: _114  and  _115
REMARK   50  A    between atoms: _115  and  _116
REMARK   51  A    between atoms: _118  and  _120
REMARK   52  A    between atoms: _120  and  _121
REMARK   53  A    between atoms: _120  and  _123
REMARK   54  A    between atoms: _123  and  _124
REMARK   55  A    between atoms: _127  and  _129
REMARK   56  A    between atoms: _129  and  _130
REMARK   57  A    between atoms: _132  and  _134
REMARK   58  A    between atoms: _134  and  _135
REMARK   59  A    between atoms: _137  and  _139
REMARK   60  A    between atoms: _139  and  _140
REMARK   61  A    between atoms: _139  and  _142
REMARK   62  A    between atoms: _142  and  _143
REMARK   63  A    between atoms: _146  and  _148
REMARK   64  A    between atoms: _148  and  _149
REMARK   65  A    between atoms: _151  and  _153
REMARK   66  A    between atoms: _153  and  _154
REMARK   67  A    between atoms: _156  and  _158
REMARK   68  A    between atoms: _158  and  _159
REMARK   69  A    between atoms: _158  and  _161
REMARK   70  A    between atoms: _161  and  _162
REMARK   71  A    between atoms: _168  and  _170
REMARK   72  A    between atoms: _170  and  _171
REMARK   73  A    between atoms: _170  and  _173
REMARK   74  A    between atoms: _173  and  _174
REMARK   75  A    between atoms: _177  and  _179
REMARK   76  A    between atoms: _179  and  _180
REMARK   77  A    between atoms: _179  and  _182
REMARK   78  A    between atoms: _185  and  _187
REMARK   79  A    between atoms: _187  and  _188
REMARK   80  A    between atoms: _187  and  _190
REMARK   81  A    between atoms: _190  and  _191
REMARK   82  A    between atoms: _194  and  _196
REMARK   83  A    between atoms: _196  and  _197
REMARK   84  A    between atoms: _196  and  _199
REMARK   85  A    between atoms: _199  and  _200
REMARK   86  A    between atoms: _204  and  _205
REMARK   87  A    between atoms: _210  and  _212
REMARK   88  A    between atoms: _212  and  _213
REMARK   89  A    between atoms: _212  and  _215
REMARK   90  A    between atoms: _218  and  _220
REMARK   91  A    between atoms: _220  and  _221
REMARK   92  A    between atoms: _220  and  _223
REMARK   93  A    between atoms: _223  and  _224
REMARK   94  A    between atoms: _229  and  _231
REMARK   95  A    between atoms: _231  and  _232
REMARK   96  A    between atoms: _231  and  _234
REMARK   97  A    between atoms: _234  and  _235
REMARK   98  A    between atoms: _238  and  _240
REMARK   99  A    between atoms: _240  and  _241
REMARK  100  A    between atoms: _240  and  _243
REMARK  101  A    between atoms: _243  and  _244
REMARK  102  A    between atoms: _247  and  _249
REMARK  103  A    between atoms: _249  and  _250
REMARK  104  A    between atoms: _252  and  _254
REMARK  105  A    between atoms: _254  and  _255
REMARK  106  A    between atoms: _254  and  _257
REMARK  107  A    between atoms: _257  and  _258
REMARK  108  A    between atoms: _258  and  _259
REMARK  109  A    between atoms: _259  and  _260
REMARK  110  A    between atoms: _269  and  _271
REMARK  111  A    between atoms: _271  and  _272
REMARK  112  A    between atoms: _271  and  _274
REMARK  113  A    between atoms: _274  and  _275
REMARK  114  A    between atoms: _275  and  _276
REMARK  115  A    between atoms: _276  and  _277
REMARK  116  A    between atoms: _286  and  _288
REMARK  117  A    between atoms: _288  and  _289
REMARK  118  A    between atoms: _288  and  _291
REMARK  119  A    between atoms: _291  and  _292
REMARK  120  A    between atoms: _295  and  _297
REMARK  121  A    between atoms: _297  and  _298
REMARK  122  A    between atoms: _297  and  _300
REMARK  123  A    between atoms: _300  and  _301
REMARK  124  A    between atoms: _304  and  _306
REMARK  125  A    between atoms: _306  and  _307
REMARK  126  A    between atoms: _306  and  _309
REMARK  127  A    between atoms: _309  and  _310
REMARK  128  A    between atoms: _313  and  _315
REMARK  129  A    between atoms: _315  and  _316
REMARK  130  A    between atoms: _315  and  _318
REMARK  131  A    between atoms: _318  and  _319
REMARK  132  A    between atoms: _322  and  _324
REMARK  133  A    between atoms: _324  and  _325
REMARK  134  A    between atoms: _324  and  _327
REMARK  135  A    between atoms: _327  and  _328
REMARK  136  A    between atoms: _331  and  _333
REMARK  137  A    between atoms: _333  and  _334
REMARK  138  A    between atoms: _336  and  _338
REMARK  139  A    between atoms: _338  and  _339
REMARK  140  A    between atoms: _342  and  _344
REMARK  141  A    between atoms: _344  and  _345
REMARK  142  A    between atoms: _344  and  _347
REMARK  143  A    between atoms: _347  and  _348
REMARK  144  A    between atoms: _351  and  _353
REMARK  145  A    between atoms: _353  and  _354
REMARK  146  A    between atoms: _353  and  _356
REMARK  147  A    between atoms: _356  and  _357
REMARK  148  A    between atoms: _360  and  _362
REMARK  149  A    between atoms: _362  and  _363
REMARK  150  A    between atoms: _362  and  _365
REMARK  151  A    between atoms: _365  and  _366
REMARK  152  A    between atoms: _369  and  _371
REMARK  153  A    between atoms: _371  and  _372
REMARK  154  A    between atoms: _371  and  _374
REMARK  155  A    between atoms: _377  and  _379
REMARK  156  A    between atoms: _379  and  _380
REMARK  157  A    between atoms: _379  and  _382
REMARK  158  A    between atoms: _382  and  _383
REMARK  159  A    between atoms: _383  and  _384
REMARK  160  A    between atoms: _384  and  _385
REMARK  161  A    between atoms: _385  and  _386
REMARK  162  A    between atoms: _390  and  _392
REMARK  163  A    between atoms: _392  and  _393
REMARK  164  A    between atoms: _392  and  _395
REMARK  165  A    between atoms: _395  and  _396
REMARK  166  A    between atoms: _396  and  _397
REMARK  167  A    between atoms: _399  and  _401
REMARK  168  A    between atoms: _401  and  _402
REMARK  169  A    between atoms: _401  and  _404
REMARK  170  A    between atoms: _404  and  _405
REMARK  171  A    between atoms: _408  and  _410
REMARK  172  A    between atoms: _410  and  _411
REMARK  173  A    between atoms: _413  and  _415
REMARK  174  A    between atoms: _415  and  _416
REMARK  175  A    between atoms: _418  and  _420
REMARK  176  A    between atoms: _420  and  _421
REMARK  177  A    between atoms: _420  and  _423
REMARK  178  A    between atoms: _423  and  _424
REMARK  179  A    between atoms: _427  and  _429
REMARK  180  A    between atoms: _429  and  _430
REMARK  181  A    between atoms: _432  and  _434
REMARK  182  A    between atoms: _434  and  _435
REMARK  183  A    between atoms: _437  and  _439
REMARK  184  A    between atoms: _439  and  _440
REMARK  185  A    between atoms: _439  and  _442
REMARK  186  A    between atoms: _442  and  _443
REMARK  187  A    between atoms: _449  and  _451
REMARK  188  A    between atoms: _451  and  _452
REMARK  189  A    between atoms: _451  and  _454
REMARK  190  A    between atoms: _454  and  _455
REMARK  191  A    between atoms: _458  and  _460
REMARK  192  A    between atoms: _460  and  _461
REMARK  193  A    between atoms: _460  and  _463
REMARK  194  A    between atoms: _463  and  _464
REMARK  195  A    between atoms: _467  and  _469
REMARK  196  A    between atoms: _469  and  _470
REMARK  197  A    between atoms: _469  and  _472
REMARK  198  A    between atoms: _472  and  _473
REMARK  199  A    between atoms: _477  and  _478
REMARK  200  A    between atoms: _483  and  _485
REMARK  201  A    between atoms: _485  and  _486
REMARK  202  A    between atoms: _485  and  _488
REMARK  203  A    between atoms: _491  and  _493
REMARK  204  A    between atoms: _493  and  _494
REMARK  205  A    between atoms: _493  and  _496
REMARK  206  A    between atoms: _496  and  _497
REMARK  207  A    between atoms: _502  and  _504
REMARK  208  A    between atoms: _504  and  _505
REMARK  209  A    between atoms: _504  and  _507
REMARK  210  A    between atoms: _507  and  _508
REMARK  211  A    between atoms: _511  and  _513
REMARK  212  A    between atoms: _513  and  _514
REMARK  213  A    between atoms: _513  and  _516
REMARK  214  A    between atoms: _516  and  _517
REMARK  215  A    between atoms: _520  and  _522
REMARK  216  A    between atoms: _522  and  _523
REMARK  217  A    between atoms: _525  and  _527
REMARK  218  A    between atoms: _527  and  _528
REMARK  219  A    between atoms: _527  and  _530
REMARK  220  A    between atoms: _530  and  _531
REMARK  221  A    between atoms: _531  and  _532
REMARK  222  A    between atoms: _532  and  _533
REMARK                            x       y       z     vdW  Elec       q    Type
REMARK                         _______ _______ _______ _____ _____    ______ ____
ROOT
ATOM      1  O   HOH     1      20.520  15.074   4.483  0.00  0.00    +0.000 OA
ENDROOT
TORSDOF 0
REMARK  Name = ../refined-set-2016/2bpv/2bpv_pocket.pdb
REMARK  222 active torsions:
REMARK  status: ('A' for Active; 'I' for Inactive)
REMARK    1  A    between atoms: _1  and  _3
REMARK    2  A    between atoms: _3  and  _4
REMARK    3  A    between atoms: _3  and  _6
REMARK    4  A    between atoms: _6  and  _7
REMARK    5  A    between atoms: _7  and  _8
REMARK    6  A    between atoms: _8  and  _9
REMARK    7  A    between atoms: _18  and  _20
REMARK    8  A    between atoms: _20  and  _21
REMARK    9  A    between atoms: _20  and  _23
REMARK   10  A    between atoms: _23  and  _24
REMARK   11  A    between atoms: _27  and  _29
REMARK   12  A    between atoms: _29  and  _30
REMARK   13  A    between atoms: _29  and  _32
REMARK   14  A    between atoms: _32  and  _33
REMARK   15  A    between atoms: _36  and  _38
REMARK   16  A    between atoms: _38  and  _39
REMARK   17  A    between atoms: _38  and  _41
REMARK   18  A    between atoms: _41  and  _42
REMARK   19  A    between atoms: _45  and  _47
REMARK   20  A    between atoms: _47  and  _48
REMARK   21  A    between atoms: _47  and  _50
REMARK   22  A    between atoms: _50  and  _51
REMARK   23  A    between atoms: _54  and  _56
REMARK   24  A    between atoms: _56  and  _57
REMARK   25  A    between atoms: _56  and  _59
REMARK   26  A    between atoms: _59  and  _60
REMARK   27  A    between atoms: _63  and  _65
REMARK   28  A    between atoms: _65  and  _66
REMARK   29  A    between atoms: _68  and  _70
REMARK   30  A    between atoms: _70  and  _71
REMARK   31  A    between atoms: _74  and  _76
REMARK   32  A    between atoms: _76  and  _77
REMARK   33  A    between atoms: _76  and  _79
REMARK   34  A    between atoms: _79  and  _80
REMARK   35  A    between atoms: _83  and  _85
REMARK   36  A    between atoms: _85  and  _86
REMARK   37  A    between atoms: _85  and  _88
REMARK   38  A    between atoms: _88  and  _89
REMARK   39  A    between atoms: _92  and  _94
REMARK   40  A    between atoms: _94  and  _95
REMARK   41  A    between atoms: _94  and  _97
REMARK   42  A    between atoms: _97  and  _98
REMARK   43  A    between atoms: _101  and  _103
REMARK   44  A    between atoms: _103  and  _104
REMARK   45  A    between atoms: _103  and  _106
REMARK   46  A    between atoms: _109  and  _111
REMARK   47  A    between atoms: _111  and  _112
REMARK   48  A    between atoms: _111  and  _114
REMARK   49  A    between atoms: _114  and  _115
REMARK   50  A    between atoms: _115  and  _116
REMARK   51  A    between atoms: _118  and  _120
REMARK   52  A    between atoms: _120  and  _121
REMARK   53  A    between atoms: _120  and  _123
REMARK   54  A    between atoms: _123  and  _124
REMARK   55  A    between atoms: _127  and  _129
REMARK   56  A    between atoms: _129  and  _130
REMARK   57  A    between atoms: _132  and  _134
REMARK   58  A    between atoms: _134  and  _135
REMARK   59  A    between atoms: _137  and  _139
REMARK   60  A    between atoms: _139  and  _140
REMARK   61  A    between atoms: _139  and  _142
REMARK   62  A    between atoms: _142  and  _143
REMARK   63  A    between atoms: _146  and  _148
REMARK   64  A    between atoms: _148  and  _149
REMARK   65  A    between atoms: _151  and  _153
REMARK   66  A    between atoms: _153  and  _154
REMARK   67  A    between atoms: _156  and  _158
REMARK   68  A    between atoms: _158  and  _159
REMARK   69  A    between atoms: _158  and  _161
REMARK   70  A    between atoms: _161  and  _162
REMARK   71  A    between atoms: _168  and  _170
REMARK   72  A    between atoms: _170  and  _171
REMARK   73  A    between atoms: _170  and  _173
REMARK   74  A    between atoms: _173  and  _174
REMARK   75  A    between atoms: _177  and  _179
REMARK   76  A    between atoms: _179  and  _180
REMARK   77  A    between atoms: _179  and  _182
REMARK   78  A    between atoms: _185  and  _187
REMARK   79  A    between atoms: _187  and  _188
REMARK   80  A    between atoms: _187  and  _190
REMARK   81  A    between atoms: _190  and  _191
REMARK   82  A    between atoms: _194  and  _196
REMARK   83  A    between atoms: _196  and  _197
REMARK   84  A    between atoms: _196  and  _199
REMARK   85  A    between atoms: _199  and  _200
REMARK   86  A    between atoms: _204  and  _205
REMARK   87  A    between atoms: _210  and  _212
REMARK   88  A    between atoms: _212  and  _213
REMARK   89  A    between atoms: _212  and  _215
REMARK   90  A    between atoms: _218  and  _220
REMARK   91  A    between atoms: _220  and  _221
REMARK   92  A    between atoms: _220  and  _223
REMARK   93  A    between atoms: _223  and  _224
REMARK   94  A    between atoms: _229  and  _231
REMARK   95  A    between atoms: _231  and  _232
REMARK   96  A    between atoms: _231  and  _234
REMARK   97  A    between atoms: _234  and  _235
REMARK   98  A    between atoms: _238  and  _240
REMARK   99  A    between atoms: _240  and  _241
REMARK  100  A    between atoms: _240  and  _243
REMARK  101  A    between atoms: _243  and  _244
REMARK  102  A    between atoms: _247  and  _249
REMARK  103  A    between atoms: _249  and  _250
REMARK  104  A    between atoms: _252  and  _254
REMARK  105  A    between atoms: _254  and  _255
REMARK  106  A    between atoms: _254  and  _257
REMARK  107  A    between atoms: _257  and  _258
REMARK  108  A    between atoms: _258  and  _259
REMARK  109  A    between atoms: _259  and  _260
REMARK  110  A    between atoms: _269  and  _271
REMARK  111  A    between atoms: _271  and  _272
REMARK  112  A    between atoms: _271  and  _274
REMARK  113  A    between atoms: _274  and  _275
REMARK  114  A    between atoms: _275  and  _276
REMARK  115  A    between atoms: _276  and  _277
REMARK  116  A    between atoms: _286  and  _288
REMARK  117  A    between atoms: _288  and  _289
REMARK  118  A    between atoms: _288  and  _291
REMARK  119  A    between atoms: _291  and  _292
REMARK  120  A    between atoms: _295  and  _297
REMARK  121  A    between atoms: _297  and  _298
REMARK  122  A    between atoms: _297  and  _300
REMARK  123  A    between atoms: _300  and  _301
REMARK  124  A    between atoms: _304  and  _306
REMARK  125  A    between atoms: _306  and  _307
REMARK  126  A    between atoms: _306  and  _309
REMARK  127  A    between atoms: _309  and  _310
REMARK  128  A    between atoms: _313  and  _315
REMARK  129  A    between atoms: _315  and  _316
REMARK  130  A    between atoms: _315  and  _318
REMARK  131  A    between atoms: _318  and  _319
REMARK  132  A    between atoms: _322  and  _324
REMARK  133  A    between atoms: _324  and  _325
REMARK  134  A    between atoms: _324  and  _327
REMARK  135  A    between atoms: _327  and  _328
REMARK  136  A    between atoms: _331  and  _333
REMARK  137  A    between atoms: _333  and  _334
REMARK  138  A    between atoms: _336  and  _338
REMARK  139  A    between atoms: _338  and  _339
REMARK  140  A    between atoms: _342  and  _344
REMARK  141  A    between atoms: _344  and  _345
REMARK  142  A    between atoms: _344  and  _347
REMARK  143  A    between atoms: _347  and  _348
REMARK  144  A    between atoms: _351  and  _353
REMARK  145  A    between atoms: _353  and  _354
REMARK  146  A    between atoms: _353  and  _356
REMARK  147  A    between atoms: _356  and  _357
REMARK  148  A    between atoms: _360  and  _362
REMARK  149  A    between atoms: _362  and  _363
REMARK  150  A    between atoms: _362  and  _365
REMARK  151  A    between atoms: _365  and  _366
REMARK  152  A    between atoms: _369  and  _371
REMARK  153  A    between atoms: _371  and  _372
REMARK  154  A    between atoms: _371  and  _374
REMARK  155  A    between atoms: _377  and  _379
REMARK  156  A    between atoms: _379  and  _380
REMARK  157  A    between atoms: _379  and  _382
REMARK  158  A    between atoms: _382  and  _383
REMARK  159  A    between atoms: _383  and  _384
REMARK  160  A    between atoms: _384  and  _385
REMARK  161  A    between atoms: _385  and  _386
REMARK  162  A    between atoms: _390  and  _392
REMARK  163  A    between atoms: _392  and  _393
REMARK  164  A    between atoms: _392  and  _395
REMARK  165  A    between atoms: _395  and  _396
REMARK  166  A    between atoms: _396  and  _397
REMARK  167  A    between atoms: _399  and  _401
REMARK  168  A    between atoms: _401  and  _402
REMARK  169  A    between atoms: _401  and  _404
REMARK  170  A    between atoms: _404  and  _405
REMARK  171  A    between atoms: _408  and  _410
REMARK  172  A    between atoms: _410  and  _411
REMARK  173  A    between atoms: _413  and  _415
REMARK  174  A    between atoms: _415  and  _416
REMARK  175  A    between atoms: _418  and  _420
REMARK  176  A    between atoms: _420  and  _421
REMARK  177  A    between atoms: _420  and  _423
REMARK  178  A    between atoms: _423  and  _424
REMARK  179  A    between atoms: _427  and  _429
REMARK  180  A    between atoms: _429  and  _430
REMARK  181  A    between atoms: _432  and  _434
REMARK  182  A    between atoms: _434  and  _435
REMARK  183  A    between atoms: _437  and  _439
REMARK  184  A    between atoms: _439  and  _440
REMARK  185  A    between atoms: _439  and  _442
REMARK  186  A    between atoms: _442  and  _443
REMARK  187  A    between atoms: _449  and  _451
REMARK  188  A    between atoms: _451  and  _452
REMARK  189  A    between atoms: _451  and  _454
REMARK  190  A    between atoms: _454  and  _455
REMARK  191  A    between atoms: _458  and  _460
REMARK  192  A    between atoms: _460  and  _461
REMARK  193  A    between atoms: _460  and  _463
REMARK  194  A    between atoms: _463  and  _464
REMARK  195  A    between atoms: _467  and  _469
REMARK  196  A    between atoms: _469  and  _470
REMARK  197  A    between atoms: _469  and  _472
REMARK  198  A    between atoms: _472  and  _473
REMARK  199  A    between atoms: _477  and  _478
REMARK  200  A    between atoms: _483  and  _485
REMARK  201  A    between atoms: _485  and  _486
REMARK  202  A    between atoms: _485  and  _488
REMARK  203  A    between atoms: _491  and  _493
REMARK  204  A    between atoms: _493  and  _494
REMARK  205  A    between atoms: _493  and  _496
REMARK  206  A    between atoms: _496  and  _497
REMARK  207  A    between atoms: _502  and  _504
REMARK  208  A    between atoms: _504  and  _505
REMARK  209  A    between atoms: _504  and  _507
REMARK  210  A    between atoms: _507  and  _508
REMARK  211  A    between atoms: _511  and  _513
REMARK  212  A    between atoms: _513  and  _514
REMARK  213  A    between atoms: _513  and  _516
REMARK  214  A    between atoms: _516  and  _517
REMARK  215  A    between atoms: _520  and  _522
REMARK  216  A    between atoms: _522  and  _523
REMARK  217  A    between atoms: _525  and  _527
REMARK  218  A    between atoms: _527  and  _528
REMARK  219  A    between atoms: _527  and  _530
REMARK  220  A    between atoms: _530  and  _531
REMARK  221  A    between atoms: _531  and  _532
REMARK  222  A    between atoms: _532  and  _533
REMARK                            x       y       z     vdW  Elec       q    Type
REMARK                         _______ _______ _______ _____ _____    ______ ____
ROOT
ATOM      1  O   HOH     1       2.210  28.269  -0.226  0.00  0.00    +0.000 OA
ENDROOT
TORSDOF 0
REMARK  Name = ../refined-set-2016/2bpv/2bpv_pocket.pdb
REMARK  222 active torsions:
REMARK  status: ('A' for Active; 'I' for Inactive)
REMARK    1  A    between atoms: _1  and  _3
REMARK    2  A    between atoms: _3  and  _4
REMARK    3  A    between atoms: _3  and  _6
REMARK    4  A    between atoms: _6  and  _7
REMARK    5  A    between atoms: _7  and  _8
REMARK    6  A    between atoms: _8  and  _9
REMARK    7  A    between atoms: _18  and  _20
REMARK    8  A    between atoms: _20  and  _21
REMARK    9  A    between atoms: _20  and  _23
REMARK   10  A    between atoms: _23  and  _24
REMARK   11  A    between atoms: _27  and  _29
REMARK   12  A    between atoms: _29  and  _30
REMARK   13  A    between atoms: _29  and  _32
REMARK   14  A    between atoms: _32  and  _33
REMARK   15  A    between atoms: _36  and  _38
REMARK   16  A    between atoms: _38  and  _39
REMARK   17  A    between atoms: _38  and  _41
REMARK   18  A    between atoms: _41  and  _42
REMARK   19  A    between atoms: _45  and  _47
REMARK   20  A    between atoms: _47  and  _48
REMARK   21  A    between atoms: _47  and  _50
REMARK   22  A    between atoms: _50  and  _51
REMARK   23  A    between atoms: _54  and  _56
REMARK   24  A    between atoms: _56  and  _57
REMARK   25  A    between atoms: _56  and  _59
REMARK   26  A    between atoms: _59  and  _60
REMARK   27  A    between atoms: _63  and  _65
REMARK   28  A    between atoms: _65  and  _66
REMARK   29  A    between atoms: _68  and  _70
REMARK   30  A    between atoms: _70  and  _71
REMARK   31  A    between atoms: _74  and  _76
REMARK   32  A    between atoms: _76  and  _77
REMARK   33  A    between atoms: _76  and  _79
REMARK   34  A    between atoms: _79  and  _80
REMARK   35  A    between atoms: _83  and  _85
REMARK   36  A    between atoms: _85  and  _86
REMARK   37  A    between atoms: _85  and  _88
REMARK   38  A    between atoms: _88  and  _89
REMARK   39  A    between atoms: _92  and  _94
REMARK   40  A    between atoms: _94  and  _95
REMARK   41  A    between atoms: _94  and  _97
REMARK   42  A    between atoms: _97  and  _98
REMARK   43  A    between atoms: _101  and  _103
REMARK   44  A    between atoms: _103  and  _104
REMARK   45  A    between atoms: _103  and  _106
REMARK   46  A    between atoms: _109  and  _111
REMARK   47  A    between atoms: _111  and  _112
REMARK   48  A    between atoms: _111  and  _114
REMARK   49  A    between atoms: _114  and  _115
REMARK   50  A    between atoms: _115  and  _116
REMARK   51  A    between atoms: _118  and  _120
REMARK   52  A    between atoms: _120  and  _121
REMARK   53  A    between atoms: _120  and  _123
REMARK   54  A    between atoms: _123  and  _124
REMARK   55  A    between atoms: _127  and  _129
REMARK   56  A    between atoms: _129  and  _130
REMARK   57  A    between atoms: _132  and  _134
REMARK   58  A    between atoms: _134  and  _135
REMARK   59  A    between atoms: _137  and  _139
REMARK   60  A    between atoms: _139  and  _140
REMARK   61  A    between atoms: _139  and  _142
REMARK   62  A    between atoms: _142  and  _143
REMARK   63  A    between atoms: _146  and  _148
REMARK   64  A    between atoms: _148  and  _149
REMARK   65  A    between atoms: _151  and  _153
REMARK   66  A    between atoms: _153  and  _154
REMARK   67  A    between atoms: _156  and  _158
REMARK   68  A    between atoms: _158  and  _159
REMARK   69  A    between atoms: _158  and  _161
REMARK   70  A    between atoms: _161  and  _162
REMARK   71  A    between atoms: _168  and  _170
REMARK   72  A    between atoms: _170  and  _171
REMARK   73  A    between atoms: _170  and  _173
REMARK   74  A    between atoms: _173  and  _174
REMARK   75  A    between atoms: _177  and  _179
REMARK   76  A    between atoms: _179  and  _180
REMARK   77  A    between atoms: _179  and  _182
REMARK   78  A    between atoms: _185  and  _187
REMARK   79  A    between atoms: _187  and  _188
REMARK   80  A    between atoms: _187  and  _190
REMARK   81  A    between atoms: _190  and  _191
REMARK   82  A    between atoms: _194  and  _196
REMARK   83  A    between atoms: _196  and  _197
REMARK   84  A    between atoms: _196  and  _199
REMARK   85  A    between atoms: _199  and  _200
REMARK   86  A    between atoms: _204  and  _205
REMARK   87  A    between atoms: _210  and  _212
REMARK   88  A    between atoms: _212  and  _213
REMARK   89  A    between atoms: _212  and  _215
REMARK   90  A    between atoms: _218  and  _220
REMARK   91  A    between atoms: _220  and  _221
REMARK   92  A    between atoms: _220  and  _223
REMARK   93  A    between atoms: _223  and  _224
REMARK   94  A    between atoms: _229  and  _231
REMARK   95  A    between atoms: _231  and  _232
REMARK   96  A    between atoms: _231  and  _234
REMARK   97  A    between atoms: _234  and  _235
REMARK   98  A    between atoms: _238  and  _240
REMARK   99  A    between atoms: _240  and  _241
REMARK  100  A    between atoms: _240  and  _243
REMARK  101  A    between atoms: _243  and  _244
REMARK  102  A    between atoms: _247  and  _249
REMARK  103  A    between atoms: _249  and  _250
REMARK  104  A    between atoms: _252  and  _254
REMARK  105  A    between atoms: _254  and  _255
REMARK  106  A    between atoms: _254  and  _257
REMARK  107  A    between atoms: _257  and  _258
REMARK  108  A    between atoms: _258  and  _259
REMARK  109  A    between atoms: _259  and  _260
REMARK  110  A    between atoms: _269  and  _271
REMARK  111  A    between atoms: _271  and  _272
REMARK  112  A    between atoms: _271  and  _274
REMARK  113  A    between atoms: _274  and  _275
REMARK  114  A    between atoms: _275  and  _276
REMARK  115  A    between atoms: _276  and  _277
REMARK  116  A    between atoms: _286  and  _288
REMARK  117  A    between atoms: _288  and  _289
REMARK  118  A    between atoms: _288  and  _291
REMARK  119  A    between atoms: _291  and  _292
REMARK  120  A    between atoms: _295  and  _297
REMARK  121  A    between atoms: _297  and  _298
REMARK  122  A    between atoms: _297  and  _300
REMARK  123  A    between atoms: _300  and  _301
REMARK  124  A    between atoms: _304  and  _306
REMARK  125  A    between atoms: _306  and  _307
REMARK  126  A    between atoms: _306  and  _309
REMARK  127  A    between atoms: _309  and  _310
REMARK  128  A    between atoms: _313  and  _315
REMARK  129  A    between atoms: _315  and  _316
REMARK  130  A    between atoms: _315  and  _318
REMARK  131  A    between atoms: _318  and  _319
REMARK  132  A    between atoms: _322  and  _324
REMARK  133  A    between atoms: _324  and  _325
REMARK  134  A    between atoms: _324  and  _327
REMARK  135  A    between atoms: _327  and  _328
REMARK  136  A    between atoms: _331  and  _333
REMARK  137  A    between atoms: _333  and  _334
REMARK  138  A    between atoms: _336  and  _338
REMARK  139  A    between atoms: _338  and  _339
REMARK  140  A    between atoms: _342  and  _344
REMARK  141  A    between atoms: _344  and  _345
REMARK  142  A    between atoms: _344  and  _347
REMARK  143  A    between atoms: _347  and  _348
REMARK  144  A    between atoms: _351  and  _353
REMARK  145  A    between atoms: _353  and  _354
REMARK  146  A    between atoms: _353  and  _356
REMARK  147  A    between atoms: _356  and  _357
REMARK  148  A    between atoms: _360  and  _362
REMARK  149  A    between atoms: _362  and  _363
REMARK  150  A    between atoms: _362  and  _365
REMARK  151  A    between atoms: _365  and  _366
REMARK  152  A    between atoms: _369  and  _371
REMARK  153  A    between atoms: _371  and  _372
REMARK  154  A    between atoms: _371  and  _374
REMARK  155  A    between atoms: _377  and  _379
REMARK  156  A    between atoms: _379  and  _380
REMARK  157  A    between atoms: _379  and  _382
REMARK  158  A    between atoms: _382  and  _383
REMARK  159  A    between atoms: _383  and  _384
REMARK  160  A    between atoms: _384  and  _385
REMARK  161  A    between atoms: _385  and  _386
REMARK  162  A    between atoms: _390  and  _392
REMARK  163  A    between atoms: _392  and  _393
REMARK  164  A    between atoms: _392  and  _395
REMARK  165  A    between atoms: _395  and  _396
REMARK  166  A    between atoms: _396  and  _397
REMARK  167  A    between atoms: _399  and  _401
REMARK  168  A    between atoms: _401  and  _402
REMARK  169  A    between atoms: _401  and  _404
REMARK  170  A    between atoms: _404  and  _405
REMARK  171  A    between atoms: _408  and  _410
REMARK  172  A    between atoms: _410  and  _411
REMARK  173  A    between atoms: _413  and  _415
REMARK  174  A    between atoms: _415  and  _416
REMARK  175  A    between atoms: _418  and  _420
REMARK  176  A    between atoms: _420  and  _421
REMARK  177  A    between atoms: _420  and  _423
REMARK  178  A    between atoms: _423  and  _424
REMARK  179  A    between atoms: _427  and  _429
REMARK  180  A    between atoms: _429  and  _430
REMARK  181  A    between atoms: _432  and  _434
REMARK  182  A    between atoms: _434  and  _435
REMARK  183  A    between atoms: _437  and  _439
REMARK  184  A    between atoms: _439  and  _440
REMARK  185  A    between atoms: _439  and  _442
REMARK  186  A    between atoms: _442  and  _443
REMARK  187  A    between atoms: _449  and  _451
REMARK  188  A    between atoms: _451  and  _452
REMARK  189  A    between atoms: _451  and  _454
REMARK  190  A    between atoms: _454  and  _455
REMARK  191  A    between atoms: _458  and  _460
REMARK  192  A    between atoms: _460  and  _461
REMARK  193  A    between atoms: _460  and  _463
REMARK  194  A    between atoms: _463  and  _464
REMARK  195  A    between atoms: _467  and  _469
REMARK  196  A    between atoms: _469  and  _470
REMARK  197  A    between atoms: _469  and  _472
REMARK  198  A    between atoms: _472  and  _473
REMARK  199  A    between atoms: _477  and  _478
REMARK  200  A    between atoms: _483  and  _485
REMARK  201  A    between atoms: _485  and  _486
REMARK  202  A    between atoms: _485  and  _488
REMARK  203  A    between atoms: _491  and  _493
REMARK  204  A    between atoms: _493  and  _494
REMARK  205  A    between atoms: _493  and  _496
REMARK  206  A    between atoms: _496  and  _497
REMARK  207  A    between atoms: _502  and  _504
REMARK  208  A    between atoms: _504  and  _505
REMARK  209  A    between atoms: _504  and  _507
REMARK  210  A    between atoms: _507  and  _508
REMARK  211  A    between atoms: _511  and  _513
REMARK  212  A    between atoms: _513  and  _514
REMARK  213  A    between atoms: _513  and  _516
REMARK  214  A    between atoms: _516  and  _517
REMARK  215  A    between atoms: _520  and  _522
REMARK  216  A    between atoms: _522  and  _523
REMARK  217  A    between atoms: _525  and  _527
REMARK  218  A    between atoms: _527  and  _528
REMARK  219  A    between atoms: _527  and  _530
REMARK  220  A    between atoms: _530  and  _531
REMARK  221  A    between atoms: _531  and  _532
REMARK  222  A    between atoms: _532  and  _533
REMARK                            x       y       z     vdW  Elec       q    Type
REMARK                         _______ _______ _______ _____ _____    ______ ____
ROOT
ATOM      1  O   HOH     1      16.884  16.418  11.618  0.00  0.00    +0.000 OA
ENDROOT
TORSDOF 0
REMARK  Name = ../refined-set-2016/2bpv/2bpv_pocket.pdb
REMARK  222 active torsions:
REMARK  status: ('A' for Active; 'I' for Inactive)
REMARK    1  A    between atoms: _1  and  _3
REMARK    2  A    between atoms: _3  and  _4
REMARK    3  A    between atoms: _3  and  _6
REMARK    4  A    between atoms: _6  and  _7
REMARK    5  A    between atoms: _7  and  _8
REMARK    6  A    between atoms: _8  and  _9
REMARK    7  A    between atoms: _18  and  _20
REMARK    8  A    between atoms: _20  and  _21
REMARK    9  A    between atoms: _20  and  _23
REMARK   10  A    between atoms: _23  and  _24
REMARK   11  A    between atoms: _27  and  _29
REMARK   12  A    between atoms: _29  and  _30
REMARK   13  A    between atoms: _29  and  _32
REMARK   14  A    between atoms: _32  and  _33
REMARK   15  A    between atoms: _36  and  _38
REMARK   16  A    between atoms: _38  and  _39
REMARK   17  A    between atoms: _38  and  _41
REMARK   18  A    between atoms: _41  and  _42
REMARK   19  A    between atoms: _45  and  _47
REMARK   20  A    between atoms: _47  and  _48
REMARK   21  A    between atoms: _47  and  _50
REMARK   22  A    between atoms: _50  and  _51
REMARK   23  A    between atoms: _54  and  _56
REMARK   24  A    between atoms: _56  and  _57
REMARK   25  A    between atoms: _56  and  _59
REMARK   26  A    between atoms: _59  and  _60
REMARK   27  A    between atoms: _63  and  _65
REMARK   28  A    between atoms: _65  and  _66
REMARK   29  A    between atoms: _68  and  _70
REMARK   30  A    between atoms: _70  and  _71
REMARK   31  A    between atoms: _74  and  _76
REMARK   32  A    between atoms: _76  and  _77
REMARK   33  A    between atoms: _76  and  _79
REMARK   34  A    between atoms: _79  and  _80
REMARK   35  A    between atoms: _83  and  _85
REMARK   36  A    between atoms: _85  and  _86
REMARK   37  A    between atoms: _85  and  _88
REMARK   38  A    between atoms: _88  and  _89
REMARK   39  A    between atoms: _92  and  _94
REMARK   40  A    between atoms: _94  and  _95
REMARK   41  A    between atoms: _94  and  _97
REMARK   42  A    between atoms: _97  and  _98
REMARK   43  A    between atoms: _101  and  _103
REMARK   44  A    between atoms: _103  and  _104
REMARK   45  A    between atoms: _103  and  _106
REMARK   46  A    between atoms: _109  and  _111
REMARK   47  A    between atoms: _111  and  _112
REMARK   48  A    between atoms: _111  and  _114
REMARK   49  A    between atoms: _114  and  _115
REMARK   50  A    between atoms: _115  and  _116
REMARK   51  A    between atoms: _118  and  _120
REMARK   52  A    between atoms: _120  and  _121
REMARK   53  A    between atoms: _120  and  _123
REMARK   54  A    between atoms: _123  and  _124
REMARK   55  A    between atoms: _127  and  _129
REMARK   56  A    between atoms: _129  and  _130
REMARK   57  A    between atoms: _132  and  _134
REMARK   58  A    between atoms: _134  and  _135
REMARK   59  A    between atoms: _137  and  _139
REMARK   60  A    between atoms: _139  and  _140
REMARK   61  A    between atoms: _139  and  _142
REMARK   62  A    between atoms: _142  and  _143
REMARK   63  A    between atoms: _146  and  _148
REMARK   64  A    between atoms: _148  and  _149
REMARK   65  A    between atoms: _151  and  _153
REMARK   66  A    between atoms: _153  and  _154
REMARK   67  A    between atoms: _156  and  _158
REMARK   68  A    between atoms: _158  and  _159
REMARK   69  A    between atoms: _158  and  _161
REMARK   70  A    between atoms: _161  and  _162
REMARK   71  A    between atoms: _168  and  _170
REMARK   72  A    between atoms: _170  and  _171
REMARK   73  A    between atoms: _170  and  _173
REMARK   74  A    between atoms: _173  and  _174
REMARK   75  A    between atoms: _177  and  _179
REMARK   76  A    between atoms: _179  and  _180
REMARK   77  A    between atoms: _179  and  _182
REMARK   78  A    between atoms: _185  and  _187
REMARK   79  A    between atoms: _187  and  _188
REMARK   80  A    between atoms: _187  and  _190
REMARK   81  A    between atoms: _190  and  _191
REMARK   82  A    between atoms: _194  and  _196
REMARK   83  A    between atoms: _196  and  _197
REMARK   84  A    between atoms: _196  and  _199
REMARK   85  A    between atoms: _199  and  _200
REMARK   86  A    between atoms: _204  and  _205
REMARK   87  A    between atoms: _210  and  _212
REMARK   88  A    between atoms: _212  and  _213
REMARK   89  A    between atoms: _212  and  _215
REMARK   90  A    between atoms: _218  and  _220
REMARK   91  A    between atoms: _220  and  _221
REMARK   92  A    between atoms: _220  and  _223
REMARK   93  A    between atoms: _223  and  _224
REMARK   94  A    between atoms: _229  and  _231
REMARK   95  A    between atoms: _231  and  _232
REMARK   96  A    between atoms: _231  and  _234
REMARK   97  A    between atoms: _234  and  _235
REMARK   98  A    between atoms: _238  and  _240
REMARK   99  A    between atoms: _240  and  _241
REMARK  100  A    between atoms: _240  and  _243
REMARK  101  A    between atoms: _243  and  _244
REMARK  102  A    between atoms: _247  and  _249
REMARK  103  A    between atoms: _249  and  _250
REMARK  104  A    between atoms: _252  and  _254
REMARK  105  A    between atoms: _254  and  _255
REMARK  106  A    between atoms: _254  and  _257
REMARK  107  A    between atoms: _257  and  _258
REMARK  108  A    between atoms: _258  and  _259
REMARK  109  A    between atoms: _259  and  _260
REMARK  110  A    between atoms: _269  and  _271
REMARK  111  A    between atoms: _271  and  _272
REMARK  112  A    between atoms: _271  and  _274
REMARK  113  A    between atoms: _274  and  _275
REMARK  114  A    between atoms: _275  and  _276
REMARK  115  A    between atoms: _276  and  _277
REMARK  116  A    between atoms: _286  and  _288
REMARK  117  A    between atoms: _288  and  _289
REMARK  118  A    between atoms: _288  and  _291
REMARK  119  A    between atoms: _291  and  _292
REMARK  120  A    between atoms: _295  and  _297
REMARK  121  A    between atoms: _297  and  _298
REMARK  122  A    between atoms: _297  and  _300
REMARK  123  A    between atoms: _300  and  _301
REMARK  124  A    between atoms: _304  and  _306
REMARK  125  A    between atoms: _306  and  _307
REMARK  126  A    between atoms: _306  and  _309
REMARK  127  A    between atoms: _309  and  _310
REMARK  128  A    between atoms: _313  and  _315
REMARK  129  A    between atoms: _315  and  _316
REMARK  130  A    between atoms: _315  and  _318
REMARK  131  A    between atoms: _318  and  _319
REMARK  132  A    between atoms: _322  and  _324
REMARK  133  A    between atoms: _324  and  _325
REMARK  134  A    between atoms: _324  and  _327
REMARK  135  A    between atoms: _327  and  _328
REMARK  136  A    between atoms: _331  and  _333
REMARK  137  A    between atoms: _333  and  _334
REMARK  138  A    between atoms: _336  and  _338
REMARK  139  A    between atoms: _338  and  _339
REMARK  140  A    between atoms: _342  and  _344
REMARK  141  A    between atoms: _344  and  _345
REMARK  142  A    between atoms: _344  and  _347
REMARK  143  A    between atoms: _347  and  _348
REMARK  144  A    between atoms: _351  and  _353
REMARK  145  A    between atoms: _353  and  _354
REMARK  146  A    between atoms: _353  and  _356
REMARK  147  A    between atoms: _356  and  _357
REMARK  148  A    between atoms: _360  and  _362
REMARK  149  A    between atoms: _362  and  _363
REMARK  150  A    between atoms: _362  and  _365
REMARK  151  A    between atoms: _365  and  _366
REMARK  152  A    between atoms: _369  and  _371
REMARK  153  A    between atoms: _371  and  _372
REMARK  154  A    between atoms: _371  and  _374
REMARK  155  A    between atoms: _377  and  _379
REMARK  156  A    between atoms: _379  and  _380
REMARK  157  A    between atoms: _379  and  _382
REMARK  158  A    between atoms: _382  and  _383
REMARK  159  A    between atoms: _383  and  _384
REMARK  160  A    between atoms: _384  and  _385
REMARK  161  A    between atoms: _385  and  _386
REMARK  162  A    between atoms: _390  and  _392
REMARK  163  A    between atoms: _392  and  _393
REMARK  164  A    between atoms: _392  and  _395
REMARK  165  A    between atoms: _395  and  _396
REMARK  166  A    between atoms: _396  and  _397
REMARK  167  A    between atoms: _399  and  _401
REMARK  168  A    between atoms: _401  and  _402
REMARK  169  A    between atoms: _401  and  _404
REMARK  170  A    between atoms: _404  and  _405
REMARK  171  A    between atoms: _408  and  _410
REMARK  172  A    between atoms: _410  and  _411
REMARK  173  A    between atoms: _413  and  _415
REMARK  174  A    between atoms: _415  and  _416
REMARK  175  A    between atoms: _418  and  _420
REMARK  176  A    between atoms: _420  and  _421
REMARK  177  A    between atoms: _420  and  _423
REMARK  178  A    between atoms: _423  and  _424
REMARK  179  A    between atoms: _427  and  _429
REMARK  180  A    between atoms: _429  and  _430
REMARK  181  A    between atoms: _432  and  _434
REMARK  182  A    between atoms: _434  and  _435
REMARK  183  A    between atoms: _437  and  _439
REMARK  184  A    between atoms: _439  and  _440
REMARK  185  A    between atoms: _439  and  _442
REMARK  186  A    between atoms: _442  and  _443
REMARK  187  A    between atoms: _449  and  _451
REMARK  188  A    between atoms: _451  and  _452
REMARK  189  A    between atoms: _451  and  _454
REMARK  190  A    between atoms: _454  and  _455
REMARK  191  A    between atoms: _458  and  _460
REMARK  192  A    between atoms: _460  and  _461
REMARK  193  A    between atoms: _460  and  _463
REMARK  194  A    between atoms: _463  and  _464
REMARK  195  A    between atoms: _467  and  _469
REMARK  196  A    between atoms: _469  and  _470
REMARK  197  A    between atoms: _469  and  _472
REMARK  198  A    between atoms: _472  and  _473
REMARK  199  A    between atoms: _477  and  _478
REMARK  200  A    between atoms: _483  and  _485
REMARK  201  A    between atoms: _485  and  _486
REMARK  202  A    between atoms: _485  and  _488
REMARK  203  A    between atoms: _491  and  _493
REMARK  204  A    between atoms: _493  and  _494
REMARK  205  A    between atoms: _493  and  _496
REMARK  206  A    between atoms: _496  and  _497
REMARK  207  A    between atoms: _502  and  _504
REMARK  208  A    between atoms: _504  and  _505
REMARK  209  A    between atoms: _504  and  _507
REMARK  210  A    between atoms: _507  and  _508
REMARK  211  A    between atoms: _511  and  _513
REMARK  212  A    between atoms: _513  and  _514
REMARK  213  A    between atoms: _513  and  _516
REMARK  214  A    between atoms: _516  and  _517
REMARK  215  A    between atoms: _520  and  _522
REMARK  216  A    between atoms: _522  and  _523
REMARK  217  A    between atoms: _525  and  _527
REMARK  218  A    between atoms: _527  and  _528
REMARK  219  A    between atoms: _527  and  _530
REMARK  220  A    between atoms: _530  and  _531
REMARK  221  A    between atoms: _531  and  _532
REMARK  222  A    between atoms: _532  and  _533
REMARK                            x       y       z     vdW  Elec       q    Type
REMARK                         _______ _______ _______ _____ _____    ______ ____
ROOT
ATOM      1  O   HOH     1       5.727  29.047  -3.353  0.00  0.00    +0.000 OA
ENDROOT
TORSDOF 0
