REMARK  Name = ../refined-set-2016/1n3z/1n3z_pocket.pdb
REMARK  135 active torsions:
REMARK  status: ('A' for Active; 'I' for Inactive)
REMARK    1  A    between atoms: _1  and  _3
REMARK    2  A    between atoms: _3  and  _4
REMARK    3  A    between atoms: _3  and  _6
REMARK    4  A    between atoms: _6  and  _7
REMARK    5  A    between atoms: _7  and  _8
REMARK    6  A    between atoms: _8  and  _9
REMARK    7  A    between atoms: _9  and  _10
REMARK    8  A    between atoms: _14  and  _16
REMARK    9  A    between atoms: _16  and  _17
REMARK   10  A    between atoms: _16  and  _19
REMARK   11  A    between atoms: _19  and  _20
REMARK   12  A    between atoms: _26  and  _28
REMARK   13  A    between atoms: _28  and  _29
REMARK   14  A    between atoms: _28  and  _31
REMARK   15  A    between atoms: _31  and  _32
REMARK   16  A    between atoms: _32  and  _33
REMARK   17  A    between atoms: _33  and  _34
REMARK   18  A    between atoms: _43  and  _45
REMARK   19  A    between atoms: _45  and  _46
REMARK   20  A    between atoms: _45  and  _48
REMARK   21  A    between atoms: _48  and  _49
REMARK   22  A    between atoms: _49  and  _50
REMARK   23  A    between atoms: _55  and  _57
REMARK   24  A    between atoms: _57  and  _58
REMARK   25  A    between atoms: _57  and  _60
REMARK   26  A    between atoms: _60  and  _61
REMARK   27  A    between atoms: _66  and  _68
REMARK   28  A    between atoms: _68  and  _69
REMARK   29  A    between atoms: _68  and  _71
REMARK   30  A    between atoms: _71  and  _72
REMARK   31  A    between atoms: _72  and  _73
REMARK   32  A    between atoms: _75  and  _77
REMARK   33  A    between atoms: _77  and  _78
REMARK   34  A    between atoms: _77  and  _80
REMARK   35  A    between atoms: _80  and  _81
REMARK   36  A    between atoms: _81  and  _82
REMARK   37  A    between atoms: _84  and  _86
REMARK   38  A    between atoms: _86  and  _87
REMARK   39  A    between atoms: _86  and  _89
REMARK   40  A    between atoms: _89  and  _90
REMARK   41  A    between atoms: _90  and  _91
REMARK   42  A    between atoms: _91  and  _92
REMARK   43  A    between atoms: _92  and  _93
REMARK   44  A    between atoms: _97  and  _99
REMARK   45  A    between atoms: _99  and  _100
REMARK   46  A    between atoms: _99  and  _102
REMARK   47  A    between atoms: _102  and  _103
REMARK   48  A    between atoms: _103  and  _104
REMARK   49  A    between atoms: _104  and  _105
REMARK   50  A    between atoms: _105  and  _106
REMARK   51  A    between atoms: _111  and  _112
REMARK   52  A    between atoms: _117  and  _119
REMARK   53  A    between atoms: _119  and  _120
REMARK   54  A    between atoms: _119  and  _122
REMARK   55  A    between atoms: _125  and  _127
REMARK   56  A    between atoms: _127  and  _128
REMARK   57  A    between atoms: _127  and  _130
REMARK   58  A    between atoms: _130  and  _131
REMARK   59  A    between atoms: _136  and  _138
REMARK   60  A    between atoms: _138  and  _139
REMARK   61  A    between atoms: _138  and  _141
REMARK   62  A    between atoms: _141  and  _142
REMARK   63  A    between atoms: _145  and  _147
REMARK   64  A    between atoms: _147  and  _148
REMARK   65  A    between atoms: _147  and  _150
REMARK   66  A    between atoms: _150  and  _151
REMARK   67  A    between atoms: _157  and  _159
REMARK   68  A    between atoms: _159  and  _160
REMARK   69  A    between atoms: _159  and  _162
REMARK   70  A    between atoms: _162  and  _163
REMARK   71  A    between atoms: _163  and  _164
REMARK   72  A    between atoms: _164  and  _165
REMARK   73  A    between atoms: _165  and  _166
REMARK   74  A    between atoms: _170  and  _172
REMARK   75  A    between atoms: _172  and  _173
REMARK   76  A    between atoms: _172  and  _175
REMARK   77  A    between atoms: _175  and  _176
REMARK   78  A    between atoms: _179  and  _181
REMARK   79  A    between atoms: _181  and  _182
REMARK   80  A    between atoms: _181  and  _184
REMARK   81  A    between atoms: _184  and  _185
REMARK   82  A    between atoms: _188  and  _190
REMARK   83  A    between atoms: _190  and  _191
REMARK   84  A    between atoms: _190  and  _193
REMARK   85  A    between atoms: _193  and  _194
REMARK   86  A    between atoms: _197  and  _199
REMARK   87  A    between atoms: _199  and  _200
REMARK   88  A    between atoms: _199  and  _202
REMARK   89  A    between atoms: _204  and  _206
REMARK   90  A    between atoms: _206  and  _207
REMARK   91  A    between atoms: _206  and  _209
REMARK   92  A    between atoms: _209  and  _210
REMARK   93  A    between atoms: _210  and  _211
REMARK   94  A    between atoms: _211  and  _212
REMARK   95  A    between atoms: _221  and  _223
REMARK   96  A    between atoms: _223  and  _224
REMARK   97  A    between atoms: _223  and  _226
REMARK   98  A    between atoms: _226  and  _227
REMARK   99  A    between atoms: _227  and  _228
REMARK  100  A    between atoms: _228  and  _229
REMARK  101  A    between atoms: _229  and  _230
REMARK  102  A    between atoms: _234  and  _236
REMARK  103  A    between atoms: _236  and  _237
REMARK  104  A    between atoms: _236  and  _239
REMARK  105  A    between atoms: _239  and  _240
REMARK  106  A    between atoms: _245  and  _247
REMARK  107  A    between atoms: _247  and  _248
REMARK  108  A    between atoms: _247  and  _250
REMARK  109  A    between atoms: _250  and  _251
REMARK  110  A    between atoms: _254  and  _256
REMARK  111  A    between atoms: _256  and  _257
REMARK  112  A    between atoms: _260  and  _262
REMARK  113  A    between atoms: _262  and  _263
REMARK  114  A    between atoms: _262  and  _265
REMARK  115  A    between atoms: _268  and  _270
REMARK  116  A    between atoms: _270  and  _271
REMARK  117  A    between atoms: _270  and  _273
REMARK  118  A    between atoms: _273  and  _274
REMARK  119  A    between atoms: _279  and  _281
REMARK  120  A    between atoms: _281  and  _282
REMARK  121  A    between atoms: _281  and  _284
REMARK  122  A    between atoms: _284  and  _285
REMARK  123  A    between atoms: _291  and  _293
REMARK  124  A    between atoms: _293  and  _294
REMARK  125  A    between atoms: _293  and  _296
REMARK  126  A    between atoms: _296  and  _297
REMARK  127  A    between atoms: _300  and  _302
REMARK  128  A    between atoms: _302  and  _303
REMARK  129  A    between atoms: _306  and  _308
REMARK  130  A    between atoms: _308  and  _309
REMARK  131  A    between atoms: _308  and  _311
REMARK  132  A    between atoms: _311  and  _312
REMARK  133  A    between atoms: _314  and  _316
REMARK  134  A    between atoms: _316  and  _317
REMARK  135  A    between atoms: _316  and  _319
REMARK                            x       y       z     vdW  Elec       q    Type
REMARK                         _______ _______ _______ _____ _____    ______ ____
ROOT
ATOM      1  C   LYS A   1      22.169  -2.740  20.912  0.00  0.00    +0.238 C 
ATOM      2  N   PHE A   2      23.149  -1.968  21.411  0.00  0.00    -0.298 N 
ATOM      3  H   PHE A   2      23.101  -1.629  22.393  0.00  0.00    +0.150 HD
ATOM      4  O   LYS A   1      22.172  -3.167  19.745  0.00  0.00    -0.274 OA
ENDROOT
BRANCH   1   5
ATOM      5  CA  LYS A   1      21.019  -3.104  21.841  0.00  0.00    +0.145 C 
BRANCH   5   6
ATOM      6  N   LYS A   1      21.576  -3.357  23.147  0.00  0.00    -0.238 NA
ATOM      7  H   LYS A   1      21.356  -2.699  23.922  0.00  0.00    +0.142 HD
ENDBRANCH   5   6
BRANCH   5   8
ATOM      8  CB  LYS A   1      20.005  -1.966  21.902  0.00  0.00    +0.026 C 
BRANCH   8   9
ATOM      9  CG  LYS A   1      19.328  -1.634  20.563  0.00  0.00    -0.000 C 
BRANCH   9  10
ATOM     10  CD  LYS A   1      18.456  -0.413  20.761  0.00  0.00    -0.024 C 
BRANCH  10  11
ATOM     11  CE  LYS A   1      17.787   0.041  19.479  0.00  0.00    -0.086 C 
BRANCH  11  12
ATOM     12  NZ  LYS A   1      16.262  -0.039  19.499  0.00  0.00    +0.380 N 
ATOM     13  HZ1 LYS A   1      15.894   0.563  20.263  0.00  0.00    -0.089 HD
ATOM     14  HZ2 LYS A   1      15.970  -1.024  19.661  0.00  0.00    -0.089 HD
ATOM     15  HZ3 LYS A   1      15.887   0.289  18.586  0.00  0.00    -0.089 HD
ENDBRANCH  11  12
ENDBRANCH  10  11
ENDBRANCH   9  10
ENDBRANCH   8   9
ENDBRANCH   5   8
ENDBRANCH   1   5
BRANCH   2  16
ATOM     16  CA  PHE A   2      24.278  -1.610  20.567  0.00  0.00    +0.141 C 
BRANCH  16  17
ATOM     17  C   PHE A   2      25.047  -2.882  20.170  0.00  0.00    +0.227 C 
ATOM     18  O   PHE A   2      25.392  -3.080  18.983  0.00  0.00    -0.286 OA
ENDBRANCH  16  17
BRANCH  16  19
ATOM     19  CB  PHE A   2      25.214  -0.604  21.262  0.00  0.00    +0.054 C 
BRANCH  19  20
ATOM     20  CG  PHE A   2      26.476  -0.322  20.482  0.00  0.00    -0.020 A 
ATOM     21  CD2 PHE A   2      27.591  -1.194  20.568  0.00  0.00    -0.004 A 
ATOM     22  CE2 PHE A   2      28.791  -0.946  19.829  0.00  0.00    -0.000 A 
ATOM     23  CZ  PHE A   2      28.869   0.200  19.001  0.00  0.00    -0.000 A 
ATOM     24  CE1 PHE A   2      27.753   1.067  18.924  0.00  0.00    -0.000 A 
ATOM     25  CD1 PHE A   2      26.560   0.795  19.663  0.00  0.00    -0.004 A 
ENDBRANCH  19  20
ENDBRANCH  16  19
ENDBRANCH   2  16
TORSDOF 11
REMARK  Name = ../refined-set-2016/1n3z/1n3z_pocket.pdb
REMARK  135 active torsions:
REMARK  status: ('A' for Active; 'I' for Inactive)
REMARK    1  A    between atoms: _1  and  _3
REMARK    2  A    between atoms: _3  and  _4
REMARK    3  A    between atoms: _3  and  _6
REMARK    4  A    between atoms: _6  and  _7
REMARK    5  A    between atoms: _7  and  _8
REMARK    6  A    between atoms: _8  and  _9
REMARK    7  A    between atoms: _9  and  _10
REMARK    8  A    between atoms: _14  and  _16
REMARK    9  A    between atoms: _16  and  _17
REMARK   10  A    between atoms: _16  and  _19
REMARK   11  A    between atoms: _19  and  _20
REMARK   12  A    between atoms: _26  and  _28
REMARK   13  A    between atoms: _28  and  _29
REMARK   14  A    between atoms: _28  and  _31
REMARK   15  A    between atoms: _31  and  _32
REMARK   16  A    between atoms: _32  and  _33
REMARK   17  A    between atoms: _33  and  _34
REMARK   18  A    between atoms: _43  and  _45
REMARK   19  A    between atoms: _45  and  _46
REMARK   20  A    between atoms: _45  and  _48
REMARK   21  A    between atoms: _48  and  _49
REMARK   22  A    between atoms: _49  and  _50
REMARK   23  A    between atoms: _55  and  _57
REMARK   24  A    between atoms: _57  and  _58
REMARK   25  A    between atoms: _57  and  _60
REMARK   26  A    between atoms: _60  and  _61
REMARK   27  A    between atoms: _66  and  _68
REMARK   28  A    between atoms: _68  and  _69
REMARK   29  A    between atoms: _68  and  _71
REMARK   30  A    between atoms: _71  and  _72
REMARK   31  A    between atoms: _72  and  _73
REMARK   32  A    between atoms: _75  and  _77
REMARK   33  A    between atoms: _77  and  _78
REMARK   34  A    between atoms: _77  and  _80
REMARK   35  A    between atoms: _80  and  _81
REMARK   36  A    between atoms: _81  and  _82
REMARK   37  A    between atoms: _84  and  _86
REMARK   38  A    between atoms: _86  and  _87
REMARK   39  A    between atoms: _86  and  _89
REMARK   40  A    between atoms: _89  and  _90
REMARK   41  A    between atoms: _90  and  _91
REMARK   42  A    between atoms: _91  and  _92
REMARK   43  A    between atoms: _92  and  _93
REMARK   44  A    between atoms: _97  and  _99
REMARK   45  A    between atoms: _99  and  _100
REMARK   46  A    between atoms: _99  and  _102
REMARK   47  A    between atoms: _102  and  _103
REMARK   48  A    between atoms: _103  and  _104
REMARK   49  A    between atoms: _104  and  _105
REMARK   50  A    between atoms: _105  and  _106
REMARK   51  A    between atoms: _111  and  _112
REMARK   52  A    between atoms: _117  and  _119
REMARK   53  A    between atoms: _119  and  _120
REMARK   54  A    between atoms: _119  and  _122
REMARK   55  A    between atoms: _125  and  _127
REMARK   56  A    between atoms: _127  and  _128
REMARK   57  A    between atoms: _127  and  _130
REMARK   58  A    between atoms: _130  and  _131
REMARK   59  A    between atoms: _136  and  _138
REMARK   60  A    between atoms: _138  and  _139
REMARK   61  A    between atoms: _138  and  _141
REMARK   62  A    between atoms: _141  and  _142
REMARK   63  A    between atoms: _145  and  _147
REMARK   64  A    between atoms: _147  and  _148
REMARK   65  A    between atoms: _147  and  _150
REMARK   66  A    between atoms: _150  and  _151
REMARK   67  A    between atoms: _157  and  _159
REMARK   68  A    between atoms: _159  and  _160
REMARK   69  A    between atoms: _159  and  _162
REMARK   70  A    between atoms: _162  and  _163
REMARK   71  A    between atoms: _163  and  _164
REMARK   72  A    between atoms: _164  and  _165
REMARK   73  A    between atoms: _165  and  _166
REMARK   74  A    between atoms: _170  and  _172
REMARK   75  A    between atoms: _172  and  _173
REMARK   76  A    between atoms: _172  and  _175
REMARK   77  A    between atoms: _175  and  _176
REMARK   78  A    between atoms: _179  and  _181
REMARK   79  A    between atoms: _181  and  _182
REMARK   80  A    between atoms: _181  and  _184
REMARK   81  A    between atoms: _184  and  _185
REMARK   82  A    between atoms: _188  and  _190
REMARK   83  A    between atoms: _190  and  _191
REMARK   84  A    between atoms: _190  and  _193
REMARK   85  A    between atoms: _193  and  _194
REMARK   86  A    between atoms: _197  and  _199
REMARK   87  A    between atoms: _199  and  _200
REMARK   88  A    between atoms: _199  and  _202
REMARK   89  A    between atoms: _204  and  _206
REMARK   90  A    between atoms: _206  and  _207
REMARK   91  A    between atoms: _206  and  _209
REMARK   92  A    between atoms: _209  and  _210
REMARK   93  A    between atoms: _210  and  _211
REMARK   94  A    between atoms: _211  and  _212
REMARK   95  A    between atoms: _221  and  _223
REMARK   96  A    between atoms: _223  and  _224
REMARK   97  A    between atoms: _223  and  _226
REMARK   98  A    between atoms: _226  and  _227
REMARK   99  A    between atoms: _227  and  _228
REMARK  100  A    between atoms: _228  and  _229
REMARK  101  A    between atoms: _229  and  _230
REMARK  102  A    between atoms: _234  and  _236
REMARK  103  A    between atoms: _236  and  _237
REMARK  104  A    between atoms: _236  and  _239
REMARK  105  A    between atoms: _239  and  _240
REMARK  106  A    between atoms: _245  and  _247
REMARK  107  A    between atoms: _247  and  _248
REMARK  108  A    between atoms: _247  and  _250
REMARK  109  A    between atoms: _250  and  _251
REMARK  110  A    between atoms: _254  and  _256
REMARK  111  A    between atoms: _256  and  _257
REMARK  112  A    between atoms: _260  and  _262
REMARK  113  A    between atoms: _262  and  _263
REMARK  114  A    between atoms: _262  and  _265
REMARK  115  A    between atoms: _268  and  _270
REMARK  116  A    between atoms: _270  and  _271
REMARK  117  A    between atoms: _270  and  _273
REMARK  118  A    between atoms: _273  and  _274
REMARK  119  A    between atoms: _279  and  _281
REMARK  120  A    between atoms: _281  and  _282
REMARK  121  A    between atoms: _281  and  _284
REMARK  122  A    between atoms: _284  and  _285
REMARK  123  A    between atoms: _291  and  _293
REMARK  124  A    between atoms: _293  and  _294
REMARK  125  A    between atoms: _293  and  _296
REMARK  126  A    between atoms: _296  and  _297
REMARK  127  A    between atoms: _300  and  _302
REMARK  128  A    between atoms: _302  and  _303
REMARK  129  A    between atoms: _306  and  _308
REMARK  130  A    between atoms: _308  and  _309
REMARK  131  A    between atoms: _308  and  _311
REMARK  132  A    between atoms: _311  and  _312
REMARK  133  A    between atoms: _314  and  _316
REMARK  134  A    between atoms: _316  and  _317
REMARK  135  A    between atoms: _316  and  _319
REMARK                            x       y       z     vdW  Elec       q    Type
REMARK                         _______ _______ _______ _____ _____    ______ ____
ROOT
ATOM      1  CA  GLN A   2      22.807  -4.265  16.148  0.00  0.00    +0.149 C 
ENDROOT
BRANCH   1   3
ATOM      2  C   ARG A   1      23.093  -6.185  17.553  0.00  0.00    +0.238 C 
ATOM      3  N   GLN A   2      22.907  -4.877  17.464  0.00  0.00    -0.297 N 
ATOM      4  H   GLN A   2      22.833  -4.295  18.323  0.00  0.00    +0.150 HD
ATOM      5  O   ARG A   1      23.174  -6.904  16.551  0.00  0.00    -0.274 OA
BRANCH   2   6
ATOM      6  CA  ARG A   1      23.168  -6.785  18.975  0.00  0.00    +0.145 C 
BRANCH   6   7
ATOM      7  N   ARG A   1      23.945  -5.979  19.942  0.00  0.00    -0.238 NA
ATOM      8  H   ARG A   1      23.476  -5.541  20.760  0.00  0.00    +0.142 HD
ENDBRANCH   6   7
BRANCH   6   9
ATOM      9  CB  ARG A   1      21.742  -6.997  19.492  0.00  0.00    +0.030 C 
BRANCH   9  10
ATOM     10  CG  ARG A   1      20.782  -7.589  18.498  0.00  0.00    +0.045 C 
BRANCH  10  11
ATOM     11  CD  ARG A   1      19.378  -7.741  19.097  0.00  0.00    +0.174 C 
BRANCH  11  12
ATOM     12  NE  ARG A   1      18.738  -6.468  19.504  0.00  0.00    -0.265 N 
ATOM     13  HE  ARG A   1      18.731  -6.243  20.519  0.00  0.00    +0.259 HD
ATOM     14  CZ  ARG A   1      18.167  -5.581  18.676  0.00  0.00    +0.342 C 
ATOM     15  NH2 ARG A   1      17.596  -4.488  19.189  0.00  0.00    -0.292 N 
ATOM     16 HH21 ARG A   1      17.598  -4.334  20.218  0.00  0.00    +0.255 HD
ATOM     17 HH22 ARG A   1      17.149  -3.791  18.560  0.00  0.00    +0.255 HD
ATOM     18  NH1 ARG A   1      18.131  -5.778  17.352  0.00  0.00    -0.292 N 
ATOM     19 HH11 ARG A   1      18.553  -6.636  16.942  0.00  0.00    +0.255 HD
ATOM     20 HH12 ARG A   1      17.681  -5.073  16.733  0.00  0.00    +0.255 HD
ENDBRANCH  11  12
ENDBRANCH  10  11
ENDBRANCH   9  10
ENDBRANCH   6   9
ENDBRANCH   2   6
ENDBRANCH   1   3
BRANCH   1  21
ATOM     21  C   GLN A   2      24.149  -4.039  15.462  0.00  0.00    +0.241 C 
ATOM     22  N   HIS A   3      25.214  -3.783  16.221  0.00  0.00    -0.298 N 
ATOM     23  H   HIS A   3      25.136  -3.843  17.256  0.00  0.00    +0.150 HD
ATOM     24  O   GLN A   2      24.207  -4.105  14.244  0.00  0.00    -0.273 OA
BRANCH  22  25
ATOM     25  CA  HIS A   3      26.500  -3.416  15.605  0.00  0.00    +0.143 C 
BRANCH  25  26
ATOM     26  C   HIS A   3      27.772  -4.248  15.766  0.00  0.00    +0.227 C 
ATOM     27  O   HIS A   3      28.758  -4.004  15.077  0.00  0.00    -0.286 OA
ENDBRANCH  25  26
BRANCH  25  28
ATOM     28  CB  HIS A   3      26.834  -1.978  16.028  0.00  0.00    +0.075 C 
BRANCH  28  29
ATOM     29  CG  HIS A   3      25.718  -1.010  15.792  0.00  0.00    +0.082 A 
ATOM     30  CD2 HIS A   3      24.911  -0.376  16.681  0.00  0.00    +0.115 A 
ATOM     31  NE2 HIS A   3      23.955   0.351  15.972  0.00  0.00    -0.221 NA
ATOM     32  CE1 HIS A   3      24.204   0.152  14.692  0.00  0.00    +0.199 A 
ATOM     33  ND1 HIS A   3      25.254  -0.656  14.541  0.00  0.00    -0.227 NA
ENDBRANCH  28  29
ENDBRANCH  25  28
ENDBRANCH  22  25
ENDBRANCH   1  21
BRANCH   1  34
ATOM     34  CB  GLN A   2      22.123  -2.901  16.229  0.00  0.00    +0.039 C 
BRANCH  34  35
ATOM     35  CG  GLN A   2      20.756  -2.903  16.855  0.00  0.00    +0.087 C 
BRANCH  35  36
ATOM     36  CD  GLN A   2      20.032  -1.595  16.605  0.00  0.00    +0.219 C 
ATOM     37  NE2 GLN A   2      20.614  -0.491  17.059  0.00  0.00    -0.329 N 
ATOM     38 HE21 GLN A   2      21.519  -0.552  17.567  0.00  0.00    +0.145 HD
ATOM     39 HE22 GLN A   2      20.165   0.434  16.906  0.00  0.00    +0.145 HD
ATOM     40  OE1 GLN A   2      18.967  -1.575  16.001  0.00  0.00    -0.275 OA
ENDBRANCH  35  36
ENDBRANCH  34  35
ENDBRANCH   1  34
TORSDOF 15
REMARK  Name = ../refined-set-2016/1n3z/1n3z_pocket.pdb
REMARK  135 active torsions:
REMARK  status: ('A' for Active; 'I' for Inactive)
REMARK    1  A    between atoms: _1  and  _3
REMARK    2  A    between atoms: _3  and  _4
REMARK    3  A    between atoms: _3  and  _6
REMARK    4  A    between atoms: _6  and  _7
REMARK    5  A    between atoms: _7  and  _8
REMARK    6  A    between atoms: _8  and  _9
REMARK    7  A    between atoms: _9  and  _10
REMARK    8  A    between atoms: _14  and  _16
REMARK    9  A    between atoms: _16  and  _17
REMARK   10  A    between atoms: _16  and  _19
REMARK   11  A    between atoms: _19  and  _20
REMARK   12  A    between atoms: _26  and  _28
REMARK   13  A    between atoms: _28  and  _29
REMARK   14  A    between atoms: _28  and  _31
REMARK   15  A    between atoms: _31  and  _32
REMARK   16  A    between atoms: _32  and  _33
REMARK   17  A    between atoms: _33  and  _34
REMARK   18  A    between atoms: _43  and  _45
REMARK   19  A    between atoms: _45  and  _46
REMARK   20  A    between atoms: _45  and  _48
REMARK   21  A    between atoms: _48  and  _49
REMARK   22  A    between atoms: _49  and  _50
REMARK   23  A    between atoms: _55  and  _57
REMARK   24  A    between atoms: _57  and  _58
REMARK   25  A    between atoms: _57  and  _60
REMARK   26  A    between atoms: _60  and  _61
REMARK   27  A    between atoms: _66  and  _68
REMARK   28  A    between atoms: _68  and  _69
REMARK   29  A    between atoms: _68  and  _71
REMARK   30  A    between atoms: _71  and  _72
REMARK   31  A    between atoms: _72  and  _73
REMARK   32  A    between atoms: _75  and  _77
REMARK   33  A    between atoms: _77  and  _78
REMARK   34  A    between atoms: _77  and  _80
REMARK   35  A    between atoms: _80  and  _81
REMARK   36  A    between atoms: _81  and  _82
REMARK   37  A    between atoms: _84  and  _86
REMARK   38  A    between atoms: _86  and  _87
REMARK   39  A    between atoms: _86  and  _89
REMARK   40  A    between atoms: _89  and  _90
REMARK   41  A    between atoms: _90  and  _91
REMARK   42  A    between atoms: _91  and  _92
REMARK   43  A    between atoms: _92  and  _93
REMARK   44  A    between atoms: _97  and  _99
REMARK   45  A    between atoms: _99  and  _100
REMARK   46  A    between atoms: _99  and  _102
REMARK   47  A    between atoms: _102  and  _103
REMARK   48  A    between atoms: _103  and  _104
REMARK   49  A    between atoms: _104  and  _105
REMARK   50  A    between atoms: _105  and  _106
REMARK   51  A    between atoms: _111  and  _112
REMARK   52  A    between atoms: _117  and  _119
REMARK   53  A    between atoms: _119  and  _120
REMARK   54  A    between atoms: _119  and  _122
REMARK   55  A    between atoms: _125  and  _127
REMARK   56  A    between atoms: _127  and  _128
REMARK   57  A    between atoms: _127  and  _130
REMARK   58  A    between atoms: _130  and  _131
REMARK   59  A    between atoms: _136  and  _138
REMARK   60  A    between atoms: _138  and  _139
REMARK   61  A    between atoms: _138  and  _141
REMARK   62  A    between atoms: _141  and  _142
REMARK   63  A    between atoms: _145  and  _147
REMARK   64  A    between atoms: _147  and  _148
REMARK   65  A    between atoms: _147  and  _150
REMARK   66  A    between atoms: _150  and  _151
REMARK   67  A    between atoms: _157  and  _159
REMARK   68  A    between atoms: _159  and  _160
REMARK   69  A    between atoms: _159  and  _162
REMARK   70  A    between atoms: _162  and  _163
REMARK   71  A    between atoms: _163  and  _164
REMARK   72  A    between atoms: _164  and  _165
REMARK   73  A    between atoms: _165  and  _166
REMARK   74  A    between atoms: _170  and  _172
REMARK   75  A    between atoms: _172  and  _173
REMARK   76  A    between atoms: _172  and  _175
REMARK   77  A    between atoms: _175  and  _176
REMARK   78  A    between atoms: _179  and  _181
REMARK   79  A    between atoms: _181  and  _182
REMARK   80  A    between atoms: _181  and  _184
REMARK   81  A    between atoms: _184  and  _185
REMARK   82  A    between atoms: _188  and  _190
REMARK   83  A    between atoms: _190  and  _191
REMARK   84  A    between atoms: _190  and  _193
REMARK   85  A    between atoms: _193  and  _194
REMARK   86  A    between atoms: _197  and  _199
REMARK   87  A    between atoms: _199  and  _200
REMARK   88  A    between atoms: _199  and  _202
REMARK   89  A    between atoms: _204  and  _206
REMARK   90  A    between atoms: _206  and  _207
REMARK   91  A    between atoms: _206  and  _209
REMARK   92  A    between atoms: _209  and  _210
REMARK   93  A    between atoms: _210  and  _211
REMARK   94  A    between atoms: _211  and  _212
REMARK   95  A    between atoms: _221  and  _223
REMARK   96  A    between atoms: _223  and  _224
REMARK   97  A    between atoms: _223  and  _226
REMARK   98  A    between atoms: _226  and  _227
REMARK   99  A    between atoms: _227  and  _228
REMARK  100  A    between atoms: _228  and  _229
REMARK  101  A    between atoms: _229  and  _230
REMARK  102  A    between atoms: _234  and  _236
REMARK  103  A    between atoms: _236  and  _237
REMARK  104  A    between atoms: _236  and  _239
REMARK  105  A    between atoms: _239  and  _240
REMARK  106  A    between atoms: _245  and  _247
REMARK  107  A    between atoms: _247  and  _248
REMARK  108  A    between atoms: _247  and  _250
REMARK  109  A    between atoms: _250  and  _251
REMARK  110  A    between atoms: _254  and  _256
REMARK  111  A    between atoms: _256  and  _257
REMARK  112  A    between atoms: _260  and  _262
REMARK  113  A    between atoms: _262  and  _263
REMARK  114  A    between atoms: _262  and  _265
REMARK  115  A    between atoms: _268  and  _270
REMARK  116  A    between atoms: _270  and  _271
REMARK  117  A    between atoms: _270  and  _273
REMARK  118  A    between atoms: _273  and  _274
REMARK  119  A    between atoms: _279  and  _281
REMARK  120  A    between atoms: _281  and  _282
REMARK  121  A    between atoms: _281  and  _284
REMARK  122  A    between atoms: _284  and  _285
REMARK  123  A    between atoms: _291  and  _293
REMARK  124  A    between atoms: _293  and  _294
REMARK  125  A    between atoms: _293  and  _296
REMARK  126  A    between atoms: _296  and  _297
REMARK  127  A    between atoms: _300  and  _302
REMARK  128  A    between atoms: _302  and  _303
REMARK  129  A    between atoms: _306  and  _308
REMARK  130  A    between atoms: _308  and  _309
REMARK  131  A    between atoms: _308  and  _311
REMARK  132  A    between atoms: _311  and  _312
REMARK  133  A    between atoms: _314  and  _316
REMARK  134  A    between atoms: _316  and  _317
REMARK  135  A    between atoms: _316  and  _319
REMARK                            x       y       z     vdW  Elec       q    Type
REMARK                         _______ _______ _______ _____ _____    ______ ____
ROOT
ATOM      1  CA  MET A   1      20.022  -8.008   9.500  0.00  0.00    +0.134 C 
ENDROOT
BRANCH   1   2
ATOM      2  N   MET A   1      21.113  -8.903   9.146  0.00  0.00    -0.239 NA
ATOM      3  H   MET A   1      21.449  -8.954   8.163  0.00  0.00    +0.142 HD
ENDBRANCH   1   2
BRANCH   1   4
ATOM      4  C   MET A   1      18.847  -8.826  10.011  0.00  0.00    +0.224 C 
ATOM      5  O   MET A   1      18.108  -8.383  10.876  0.00  0.00    -0.287 OA
ENDBRANCH   1   4
BRANCH   1   6
ATOM      6  CB  MET A   1      19.613  -7.167   8.282  0.00  0.00    +0.037 C 
BRANCH   6   7
ATOM      7  CG  MET A   1      20.675  -6.127   7.887  0.00  0.00    +0.059 C 
BRANCH   7   8
ATOM      8  SD  MET A   1      21.126  -4.934   9.200  0.00  0.00    -0.139 S 
ATOM      9  CE  MET A   1      19.631  -3.873   9.133  0.00  0.00    +0.069 C 
ENDBRANCH   7   8
ENDBRANCH   6   7
ENDBRANCH   1   6
TORSDOF 5
REMARK  Name = ../refined-set-2016/1n3z/1n3z_pocket.pdb
REMARK  135 active torsions:
REMARK  status: ('A' for Active; 'I' for Inactive)
REMARK    1  A    between atoms: _1  and  _3
REMARK    2  A    between atoms: _3  and  _4
REMARK    3  A    between atoms: _3  and  _6
REMARK    4  A    between atoms: _6  and  _7
REMARK    5  A    between atoms: _7  and  _8
REMARK    6  A    between atoms: _8  and  _9
REMARK    7  A    between atoms: _9  and  _10
REMARK    8  A    between atoms: _14  and  _16
REMARK    9  A    between atoms: _16  and  _17
REMARK   10  A    between atoms: _16  and  _19
REMARK   11  A    between atoms: _19  and  _20
REMARK   12  A    between atoms: _26  and  _28
REMARK   13  A    between atoms: _28  and  _29
REMARK   14  A    between atoms: _28  and  _31
REMARK   15  A    between atoms: _31  and  _32
REMARK   16  A    between atoms: _32  and  _33
REMARK   17  A    between atoms: _33  and  _34
REMARK   18  A    between atoms: _43  and  _45
REMARK   19  A    between atoms: _45  and  _46
REMARK   20  A    between atoms: _45  and  _48
REMARK   21  A    between atoms: _48  and  _49
REMARK   22  A    between atoms: _49  and  _50
REMARK   23  A    between atoms: _55  and  _57
REMARK   24  A    between atoms: _57  and  _58
REMARK   25  A    between atoms: _57  and  _60
REMARK   26  A    between atoms: _60  and  _61
REMARK   27  A    between atoms: _66  and  _68
REMARK   28  A    between atoms: _68  and  _69
REMARK   29  A    between atoms: _68  and  _71
REMARK   30  A    between atoms: _71  and  _72
REMARK   31  A    between atoms: _72  and  _73
REMARK   32  A    between atoms: _75  and  _77
REMARK   33  A    between atoms: _77  and  _78
REMARK   34  A    between atoms: _77  and  _80
REMARK   35  A    between atoms: _80  and  _81
REMARK   36  A    between atoms: _81  and  _82
REMARK   37  A    between atoms: _84  and  _86
REMARK   38  A    between atoms: _86  and  _87
REMARK   39  A    between atoms: _86  and  _89
REMARK   40  A    between atoms: _89  and  _90
REMARK   41  A    between atoms: _90  and  _91
REMARK   42  A    between atoms: _91  and  _92
REMARK   43  A    between atoms: _92  and  _93
REMARK   44  A    between atoms: _97  and  _99
REMARK   45  A    between atoms: _99  and  _100
REMARK   46  A    between atoms: _99  and  _102
REMARK   47  A    between atoms: _102  and  _103
REMARK   48  A    between atoms: _103  and  _104
REMARK   49  A    between atoms: _104  and  _105
REMARK   50  A    between atoms: _105  and  _106
REMARK   51  A    between atoms: _111  and  _112
REMARK   52  A    between atoms: _117  and  _119
REMARK   53  A    between atoms: _119  and  _120
REMARK   54  A    between atoms: _119  and  _122
REMARK   55  A    between atoms: _125  and  _127
REMARK   56  A    between atoms: _127  and  _128
REMARK   57  A    between atoms: _127  and  _130
REMARK   58  A    between atoms: _130  and  _131
REMARK   59  A    between atoms: _136  and  _138
REMARK   60  A    between atoms: _138  and  _139
REMARK   61  A    between atoms: _138  and  _141
REMARK   62  A    between atoms: _141  and  _142
REMARK   63  A    between atoms: _145  and  _147
REMARK   64  A    between atoms: _147  and  _148
REMARK   65  A    between atoms: _147  and  _150
REMARK   66  A    between atoms: _150  and  _151
REMARK   67  A    between atoms: _157  and  _159
REMARK   68  A    between atoms: _159  and  _160
REMARK   69  A    between atoms: _159  and  _162
REMARK   70  A    between atoms: _162  and  _163
REMARK   71  A    between atoms: _163  and  _164
REMARK   72  A    between atoms: _164  and  _165
REMARK   73  A    between atoms: _165  and  _166
REMARK   74  A    between atoms: _170  and  _172
REMARK   75  A    between atoms: _172  and  _173
REMARK   76  A    between atoms: _172  and  _175
REMARK   77  A    between atoms: _175  and  _176
REMARK   78  A    between atoms: _179  and  _181
REMARK   79  A    between atoms: _181  and  _182
REMARK   80  A    between atoms: _181  and  _184
REMARK   81  A    between atoms: _184  and  _185
REMARK   82  A    between atoms: _188  and  _190
REMARK   83  A    between atoms: _190  and  _191
REMARK   84  A    between atoms: _190  and  _193
REMARK   85  A    between atoms: _193  and  _194
REMARK   86  A    between atoms: _197  and  _199
REMARK   87  A    between atoms: _199  and  _200
REMARK   88  A    between atoms: _199  and  _202
REMARK   89  A    between atoms: _204  and  _206
REMARK   90  A    between atoms: _206  and  _207
REMARK   91  A    between atoms: _206  and  _209
REMARK   92  A    between atoms: _209  and  _210
REMARK   93  A    between atoms: _210  and  _211
REMARK   94  A    between atoms: _211  and  _212
REMARK   95  A    between atoms: _221  and  _223
REMARK   96  A    between atoms: _223  and  _224
REMARK   97  A    between atoms: _223  and  _226
REMARK   98  A    between atoms: _226  and  _227
REMARK   99  A    between atoms: _227  and  _228
REMARK  100  A    between atoms: _228  and  _229
REMARK  101  A    between atoms: _229  and  _230
REMARK  102  A    between atoms: _234  and  _236
REMARK  103  A    between atoms: _236  and  _237
REMARK  104  A    between atoms: _236  and  _239
REMARK  105  A    between atoms: _239  and  _240
REMARK  106  A    between atoms: _245  and  _247
REMARK  107  A    between atoms: _247  and  _248
REMARK  108  A    between atoms: _247  and  _250
REMARK  109  A    between atoms: _250  and  _251
REMARK  110  A    between atoms: _254  and  _256
REMARK  111  A    between atoms: _256  and  _257
REMARK  112  A    between atoms: _260  and  _262
REMARK  113  A    between atoms: _262  and  _263
REMARK  114  A    between atoms: _262  and  _265
REMARK  115  A    between atoms: _268  and  _270
REMARK  116  A    between atoms: _270  and  _271
REMARK  117  A    between atoms: _270  and  _273
REMARK  118  A    between atoms: _273  and  _274
REMARK  119  A    between atoms: _279  and  _281
REMARK  120  A    between atoms: _281  and  _282
REMARK  121  A    between atoms: _281  and  _284
REMARK  122  A    between atoms: _284  and  _285
REMARK  123  A    between atoms: _291  and  _293
REMARK  124  A    between atoms: _293  and  _294
REMARK  125  A    between atoms: _293  and  _296
REMARK  126  A    between atoms: _296  and  _297
REMARK  127  A    between atoms: _300  and  _302
REMARK  128  A    between atoms: _302  and  _303
REMARK  129  A    between atoms: _306  and  _308
REMARK  130  A    between atoms: _308  and  _309
REMARK  131  A    between atoms: _308  and  _311
REMARK  132  A    between atoms: _311  and  _312
REMARK  133  A    between atoms: _314  and  _316
REMARK  134  A    between atoms: _316  and  _317
REMARK  135  A    between atoms: _316  and  _319
REMARK                            x       y       z     vdW  Elec       q    Type
REMARK                         _______ _______ _______ _____ _____    ______ ____
ROOT
ATOM      1  CA  MET A   1      16.606  -5.620  12.462  0.00  0.00    +0.134 C 
ENDROOT
BRANCH   1   2
ATOM      2  N   MET A   1      16.745  -6.987  12.942  0.00  0.00    -0.239 NA
ATOM      3  H   MET A   1      17.356  -7.654  12.428  0.00  0.00    +0.142 HD
ENDBRANCH   1   2
BRANCH   1   4
ATOM      4  C   MET A   1      15.664  -5.596  11.264  0.00  0.00    +0.224 C 
ATOM      5  O   MET A   1      15.578  -4.615  10.551  0.00  0.00    -0.287 OA
ENDBRANCH   1   4
BRANCH   1   6
ATOM      6  CB  MET A   1      17.985  -5.018  12.157  0.00  0.00    +0.037 C 
BRANCH   6   7
ATOM      7  CG  MET A   1      18.630  -4.476  13.413  0.00  0.00    +0.059 C 
BRANCH   7   8
ATOM      8  SD  MET A   1      20.300  -3.850  13.186  0.00  0.00    -0.139 S 
ATOM      9  CE  MET A   1      21.261  -5.378  13.023  0.00  0.00    +0.069 C 
ENDBRANCH   7   8
ENDBRANCH   6   7
ENDBRANCH   1   6
TORSDOF 5
REMARK  Name = ../refined-set-2016/1n3z/1n3z_pocket.pdb
REMARK  135 active torsions:
REMARK  status: ('A' for Active; 'I' for Inactive)
REMARK    1  A    between atoms: _1  and  _3
REMARK    2  A    between atoms: _3  and  _4
REMARK    3  A    between atoms: _3  and  _6
REMARK    4  A    between atoms: _6  and  _7
REMARK    5  A    between atoms: _7  and  _8
REMARK    6  A    between atoms: _8  and  _9
REMARK    7  A    between atoms: _9  and  _10
REMARK    8  A    between atoms: _14  and  _16
REMARK    9  A    between atoms: _16  and  _17
REMARK   10  A    between atoms: _16  and  _19
REMARK   11  A    between atoms: _19  and  _20
REMARK   12  A    between atoms: _26  and  _28
REMARK   13  A    between atoms: _28  and  _29
REMARK   14  A    between atoms: _28  and  _31
REMARK   15  A    between atoms: _31  and  _32
REMARK   16  A    between atoms: _32  and  _33
REMARK   17  A    between atoms: _33  and  _34
REMARK   18  A    between atoms: _43  and  _45
REMARK   19  A    between atoms: _45  and  _46
REMARK   20  A    between atoms: _45  and  _48
REMARK   21  A    between atoms: _48  and  _49
REMARK   22  A    between atoms: _49  and  _50
REMARK   23  A    between atoms: _55  and  _57
REMARK   24  A    between atoms: _57  and  _58
REMARK   25  A    between atoms: _57  and  _60
REMARK   26  A    between atoms: _60  and  _61
REMARK   27  A    between atoms: _66  and  _68
REMARK   28  A    between atoms: _68  and  _69
REMARK   29  A    between atoms: _68  and  _71
REMARK   30  A    between atoms: _71  and  _72
REMARK   31  A    between atoms: _72  and  _73
REMARK   32  A    between atoms: _75  and  _77
REMARK   33  A    between atoms: _77  and  _78
REMARK   34  A    between atoms: _77  and  _80
REMARK   35  A    between atoms: _80  and  _81
REMARK   36  A    between atoms: _81  and  _82
REMARK   37  A    between atoms: _84  and  _86
REMARK   38  A    between atoms: _86  and  _87
REMARK   39  A    between atoms: _86  and  _89
REMARK   40  A    between atoms: _89  and  _90
REMARK   41  A    between atoms: _90  and  _91
REMARK   42  A    between atoms: _91  and  _92
REMARK   43  A    between atoms: _92  and  _93
REMARK   44  A    between atoms: _97  and  _99
REMARK   45  A    between atoms: _99  and  _100
REMARK   46  A    between atoms: _99  and  _102
REMARK   47  A    between atoms: _102  and  _103
REMARK   48  A    between atoms: _103  and  _104
REMARK   49  A    between atoms: _104  and  _105
REMARK   50  A    between atoms: _105  and  _106
REMARK   51  A    between atoms: _111  and  _112
REMARK   52  A    between atoms: _117  and  _119
REMARK   53  A    between atoms: _119  and  _120
REMARK   54  A    between atoms: _119  and  _122
REMARK   55  A    between atoms: _125  and  _127
REMARK   56  A    between atoms: _127  and  _128
REMARK   57  A    between atoms: _127  and  _130
REMARK   58  A    between atoms: _130  and  _131
REMARK   59  A    between atoms: _136  and  _138
REMARK   60  A    between atoms: _138  and  _139
REMARK   61  A    between atoms: _138  and  _141
REMARK   62  A    between atoms: _141  and  _142
REMARK   63  A    between atoms: _145  and  _147
REMARK   64  A    between atoms: _147  and  _148
REMARK   65  A    between atoms: _147  and  _150
REMARK   66  A    between atoms: _150  and  _151
REMARK   67  A    between atoms: _157  and  _159
REMARK   68  A    between atoms: _159  and  _160
REMARK   69  A    between atoms: _159  and  _162
REMARK   70  A    between atoms: _162  and  _163
REMARK   71  A    between atoms: _163  and  _164
REMARK   72  A    between atoms: _164  and  _165
REMARK   73  A    between atoms: _165  and  _166
REMARK   74  A    between atoms: _170  and  _172
REMARK   75  A    between atoms: _172  and  _173
REMARK   76  A    between atoms: _172  and  _175
REMARK   77  A    between atoms: _175  and  _176
REMARK   78  A    between atoms: _179  and  _181
REMARK   79  A    between atoms: _181  and  _182
REMARK   80  A    between atoms: _181  and  _184
REMARK   81  A    between atoms: _184  and  _185
REMARK   82  A    between atoms: _188  and  _190
REMARK   83  A    between atoms: _190  and  _191
REMARK   84  A    between atoms: _190  and  _193
REMARK   85  A    between atoms: _193  and  _194
REMARK   86  A    between atoms: _197  and  _199
REMARK   87  A    between atoms: _199  and  _200
REMARK   88  A    between atoms: _199  and  _202
REMARK   89  A    between atoms: _204  and  _206
REMARK   90  A    between atoms: _206  and  _207
REMARK   91  A    between atoms: _206  and  _209
REMARK   92  A    between atoms: _209  and  _210
REMARK   93  A    between atoms: _210  and  _211
REMARK   94  A    between atoms: _211  and  _212
REMARK   95  A    between atoms: _221  and  _223
REMARK   96  A    between atoms: _223  and  _224
REMARK   97  A    between atoms: _223  and  _226
REMARK   98  A    between atoms: _226  and  _227
REMARK   99  A    between atoms: _227  and  _228
REMARK  100  A    between atoms: _228  and  _229
REMARK  101  A    between atoms: _229  and  _230
REMARK  102  A    between atoms: _234  and  _236
REMARK  103  A    between atoms: _236  and  _237
REMARK  104  A    between atoms: _236  and  _239
REMARK  105  A    between atoms: _239  and  _240
REMARK  106  A    between atoms: _245  and  _247
REMARK  107  A    between atoms: _247  and  _248
REMARK  108  A    between atoms: _247  and  _250
REMARK  109  A    between atoms: _250  and  _251
REMARK  110  A    between atoms: _254  and  _256
REMARK  111  A    between atoms: _256  and  _257
REMARK  112  A    between atoms: _260  and  _262
REMARK  113  A    between atoms: _262  and  _263
REMARK  114  A    between atoms: _262  and  _265
REMARK  115  A    between atoms: _268  and  _270
REMARK  116  A    between atoms: _270  and  _271
REMARK  117  A    between atoms: _270  and  _273
REMARK  118  A    between atoms: _273  and  _274
REMARK  119  A    between atoms: _279  and  _281
REMARK  120  A    between atoms: _281  and  _282
REMARK  121  A    between atoms: _281  and  _284
REMARK  122  A    between atoms: _284  and  _285
REMARK  123  A    between atoms: _291  and  _293
REMARK  124  A    between atoms: _293  and  _294
REMARK  125  A    between atoms: _293  and  _296
REMARK  126  A    between atoms: _296  and  _297
REMARK  127  A    between atoms: _300  and  _302
REMARK  128  A    between atoms: _302  and  _303
REMARK  129  A    between atoms: _306  and  _308
REMARK  130  A    between atoms: _308  and  _309
REMARK  131  A    between atoms: _308  and  _311
REMARK  132  A    between atoms: _311  and  _312
REMARK  133  A    between atoms: _314  and  _316
REMARK  134  A    between atoms: _316  and  _317
REMARK  135  A    between atoms: _316  and  _319
REMARK                            x       y       z     vdW  Elec       q    Type
REMARK                         _______ _______ _______ _____ _____    ______ ____
ROOT
ATOM      1  CG  LYS A   1      11.231  -0.914  10.292  0.00  0.00    -0.000 C 
ENDROOT
BRANCH   1   2
ATOM      2  CB  LYS A   1       9.973  -1.470   9.667  0.00  0.00    +0.025 C 
BRANCH   2   3
ATOM      3  CA  LYS A   1      10.073  -2.956   9.337  0.00  0.00    +0.133 C 
BRANCH   3   4
ATOM      4  N   LYS A   1       9.706  -3.743  10.469  0.00  0.00    -0.239 NA
ATOM      5  H   LYS A   1      10.451  -4.168  11.057  0.00  0.00    +0.142 HD
ENDBRANCH   3   4
BRANCH   3   6
ATOM      6  C   LYS A   1      11.517  -3.330   9.018  0.00  0.00    +0.224 C 
ATOM      7  O   LYS A   1      12.190  -3.975   9.816  0.00  0.00    -0.287 OA
ENDBRANCH   3   6
ENDBRANCH   2   3
ENDBRANCH   1   2
BRANCH   1   8
ATOM      8  CD  LYS A   1      11.131   0.566  10.623  0.00  0.00    -0.024 C 
BRANCH   8   9
ATOM      9  CE  LYS A   1      10.842   1.401   9.395  0.00  0.00    -0.086 C 
BRANCH   9  10
ATOM     10  NZ  LYS A   1      11.843   2.490   9.270  0.00  0.00    +0.380 N 
ATOM     11  HZ1 LYS A   1      11.800   3.097  10.113  0.00  0.00    -0.089 HD
ATOM     12  HZ2 LYS A   1      12.794   2.077   9.186  0.00  0.00    -0.089 HD
ATOM     13  HZ3 LYS A   1      11.634   3.056   8.423  0.00  0.00    -0.089 HD
ENDBRANCH   9  10
ENDBRANCH   8   9
ENDBRANCH   1   8
TORSDOF 7
REMARK  Name = ../refined-set-2016/1n3z/1n3z_pocket.pdb
REMARK  135 active torsions:
REMARK  status: ('A' for Active; 'I' for Inactive)
REMARK    1  A    between atoms: _1  and  _3
REMARK    2  A    between atoms: _3  and  _4
REMARK    3  A    between atoms: _3  and  _6
REMARK    4  A    between atoms: _6  and  _7
REMARK    5  A    between atoms: _7  and  _8
REMARK    6  A    between atoms: _8  and  _9
REMARK    7  A    between atoms: _9  and  _10
REMARK    8  A    between atoms: _14  and  _16
REMARK    9  A    between atoms: _16  and  _17
REMARK   10  A    between atoms: _16  and  _19
REMARK   11  A    between atoms: _19  and  _20
REMARK   12  A    between atoms: _26  and  _28
REMARK   13  A    between atoms: _28  and  _29
REMARK   14  A    between atoms: _28  and  _31
REMARK   15  A    between atoms: _31  and  _32
REMARK   16  A    between atoms: _32  and  _33
REMARK   17  A    between atoms: _33  and  _34
REMARK   18  A    between atoms: _43  and  _45
REMARK   19  A    between atoms: _45  and  _46
REMARK   20  A    between atoms: _45  and  _48
REMARK   21  A    between atoms: _48  and  _49
REMARK   22  A    between atoms: _49  and  _50
REMARK   23  A    between atoms: _55  and  _57
REMARK   24  A    between atoms: _57  and  _58
REMARK   25  A    between atoms: _57  and  _60
REMARK   26  A    between atoms: _60  and  _61
REMARK   27  A    between atoms: _66  and  _68
REMARK   28  A    between atoms: _68  and  _69
REMARK   29  A    between atoms: _68  and  _71
REMARK   30  A    between atoms: _71  and  _72
REMARK   31  A    between atoms: _72  and  _73
REMARK   32  A    between atoms: _75  and  _77
REMARK   33  A    between atoms: _77  and  _78
REMARK   34  A    between atoms: _77  and  _80
REMARK   35  A    between atoms: _80  and  _81
REMARK   36  A    between atoms: _81  and  _82
REMARK   37  A    between atoms: _84  and  _86
REMARK   38  A    between atoms: _86  and  _87
REMARK   39  A    between atoms: _86  and  _89
REMARK   40  A    between atoms: _89  and  _90
REMARK   41  A    between atoms: _90  and  _91
REMARK   42  A    between atoms: _91  and  _92
REMARK   43  A    between atoms: _92  and  _93
REMARK   44  A    between atoms: _97  and  _99
REMARK   45  A    between atoms: _99  and  _100
REMARK   46  A    between atoms: _99  and  _102
REMARK   47  A    between atoms: _102  and  _103
REMARK   48  A    between atoms: _103  and  _104
REMARK   49  A    between atoms: _104  and  _105
REMARK   50  A    between atoms: _105  and  _106
REMARK   51  A    between atoms: _111  and  _112
REMARK   52  A    between atoms: _117  and  _119
REMARK   53  A    between atoms: _119  and  _120
REMARK   54  A    between atoms: _119  and  _122
REMARK   55  A    between atoms: _125  and  _127
REMARK   56  A    between atoms: _127  and  _128
REMARK   57  A    between atoms: _127  and  _130
REMARK   58  A    between atoms: _130  and  _131
REMARK   59  A    between atoms: _136  and  _138
REMARK   60  A    between atoms: _138  and  _139
REMARK   61  A    between atoms: _138  and  _141
REMARK   62  A    between atoms: _141  and  _142
REMARK   63  A    between atoms: _145  and  _147
REMARK   64  A    between atoms: _147  and  _148
REMARK   65  A    between atoms: _147  and  _150
REMARK   66  A    between atoms: _150  and  _151
REMARK   67  A    between atoms: _157  and  _159
REMARK   68  A    between atoms: _159  and  _160
REMARK   69  A    between atoms: _159  and  _162
REMARK   70  A    between atoms: _162  and  _163
REMARK   71  A    between atoms: _163  and  _164
REMARK   72  A    between atoms: _164  and  _165
REMARK   73  A    between atoms: _165  and  _166
REMARK   74  A    between atoms: _170  and  _172
REMARK   75  A    between atoms: _172  and  _173
REMARK   76  A    between atoms: _172  and  _175
REMARK   77  A    between atoms: _175  and  _176
REMARK   78  A    between atoms: _179  and  _181
REMARK   79  A    between atoms: _181  and  _182
REMARK   80  A    between atoms: _181  and  _184
REMARK   81  A    between atoms: _184  and  _185
REMARK   82  A    between atoms: _188  and  _190
REMARK   83  A    between atoms: _190  and  _191
REMARK   84  A    between atoms: _190  and  _193
REMARK   85  A    between atoms: _193  and  _194
REMARK   86  A    between atoms: _197  and  _199
REMARK   87  A    between atoms: _199  and  _200
REMARK   88  A    between atoms: _199  and  _202
REMARK   89  A    between atoms: _204  and  _206
REMARK   90  A    between atoms: _206  and  _207
REMARK   91  A    between atoms: _206  and  _209
REMARK   92  A    between atoms: _209  and  _210
REMARK   93  A    between atoms: _210  and  _211
REMARK   94  A    between atoms: _211  and  _212
REMARK   95  A    between atoms: _221  and  _223
REMARK   96  A    between atoms: _223  and  _224
REMARK   97  A    between atoms: _223  and  _226
REMARK   98  A    between atoms: _226  and  _227
REMARK   99  A    between atoms: _227  and  _228
REMARK  100  A    between atoms: _228  and  _229
REMARK  101  A    between atoms: _229  and  _230
REMARK  102  A    between atoms: _234  and  _236
REMARK  103  A    between atoms: _236  and  _237
REMARK  104  A    between atoms: _236  and  _239
REMARK  105  A    between atoms: _239  and  _240
REMARK  106  A    between atoms: _245  and  _247
REMARK  107  A    between atoms: _247  and  _248
REMARK  108  A    between atoms: _247  and  _250
REMARK  109  A    between atoms: _250  and  _251
REMARK  110  A    between atoms: _254  and  _256
REMARK  111  A    between atoms: _256  and  _257
REMARK  112  A    between atoms: _260  and  _262
REMARK  113  A    between atoms: _262  and  _263
REMARK  114  A    between atoms: _262  and  _265
REMARK  115  A    between atoms: _268  and  _270
REMARK  116  A    between atoms: _270  and  _271
REMARK  117  A    between atoms: _270  and  _273
REMARK  118  A    between atoms: _273  and  _274
REMARK  119  A    between atoms: _279  and  _281
REMARK  120  A    between atoms: _281  and  _282
REMARK  121  A    between atoms: _281  and  _284
REMARK  122  A    between atoms: _284  and  _285
REMARK  123  A    between atoms: _291  and  _293
REMARK  124  A    between atoms: _293  and  _294
REMARK  125  A    between atoms: _293  and  _296
REMARK  126  A    between atoms: _296  and  _297
REMARK  127  A    between atoms: _300  and  _302
REMARK  128  A    between atoms: _302  and  _303
REMARK  129  A    between atoms: _306  and  _308
REMARK  130  A    between atoms: _308  and  _309
REMARK  131  A    between atoms: _308  and  _311
REMARK  132  A    between atoms: _311  and  _312
REMARK  133  A    between atoms: _314  and  _316
REMARK  134  A    between atoms: _316  and  _317
REMARK  135  A    between atoms: _316  and  _319
REMARK                            x       y       z     vdW  Elec       q    Type
REMARK                         _______ _______ _______ _____ _____    ______ ____
ROOT
ATOM      1  C   VAL A   3      21.422   0.865   8.459  0.00  0.00    +0.241 C 
ATOM      2  O   VAL A   3      20.888   1.231   9.497  0.00  0.00    -0.273 OA
ATOM      3  N   ASN A   4      22.470   0.063   8.450  0.00  0.00    -0.297 N 
ATOM      4  H   ASN A   4      22.887  -0.235   7.545  0.00  0.00    +0.150 HD
ENDROOT
BRANCH   3   5
ATOM      5  CA  ASN A   4      23.044  -0.406   9.701  0.00  0.00    +0.158 C 
BRANCH   5   6
ATOM      6  C   ASN A   4      24.494  -0.720   9.443  0.00  0.00    +0.241 C 
ATOM      7  N   THR A   5      25.342  -0.581  10.457  0.00  0.00    -0.295 N 
ATOM      8  H   THR A   5      24.985  -0.248  11.375  0.00  0.00    +0.150 HD
ATOM      9  O   ASN A   4      24.826  -1.118   8.335  0.00  0.00    -0.273 OA
BRANCH   7  10
ATOM     10  CA  THR A   5      26.760  -0.884  10.313  0.00  0.00    +0.176 C 
BRANCH  10  11
ATOM     11  C   THR A   5      27.174  -1.921  11.351  0.00  0.00    +0.243 C 
ATOM     12  O   THR A   5      26.771  -1.814  12.527  0.00  0.00    -0.273 OA
ATOM     13  N   PHE A   6      27.968  -2.915  10.903  0.00  0.00    -0.298 N 
ATOM     14  H   PHE A   6      28.202  -2.946   9.890  0.00  0.00    +0.150 HD
BRANCH  13  15
ATOM     15  CA  PHE A   6      28.519  -3.960  11.786  0.00  0.00    +0.141 C 
BRANCH  15  16
ATOM     16  C   PHE A   6      30.018  -3.667  11.904  0.00  0.00    +0.227 C 
ATOM     17  O   PHE A   6      30.647  -3.252  10.931  0.00  0.00    -0.286 OA
ENDBRANCH  15  16
BRANCH  15  18
ATOM     18  CB  PHE A   6      28.304  -5.363  11.198  0.00  0.00    +0.054 C 
BRANCH  18  19
ATOM     19  CG  PHE A   6      26.894  -5.826  11.293  0.00  0.00    -0.020 A 
ATOM     20  CD2 PHE A   6      26.391  -6.315  12.500  0.00  0.00    -0.004 A 
ATOM     21  CE2 PHE A   6      25.054  -6.760  12.586  0.00  0.00    -0.000 A 
ATOM     22  CZ  PHE A   6      24.216  -6.712  11.441  0.00  0.00    -0.000 A 
ATOM     23  CE1 PHE A   6      24.719  -6.214  10.231  0.00  0.00    -0.000 A 
ATOM     24  CD1 PHE A   6      26.053  -5.776  10.167  0.00  0.00    -0.004 A 
ENDBRANCH  18  19
ENDBRANCH  15  18
ENDBRANCH  13  15
ENDBRANCH  10  11
BRANCH  10  25
ATOM     25  CB  THR A   5      27.626   0.393  10.536  0.00  0.00    +0.137 C 
ATOM     26  CG2 THR A   5      29.148   0.088  10.420  0.00  0.00    +0.034 C 
BRANCH  25  27
ATOM     27  OG1 THR A   5      27.247   1.386   9.571  0.00  0.00    -0.382 OA
ATOM     28  HG1 THR A   5      27.399   1.033   8.659  0.00  0.00    +0.210 HD
ENDBRANCH  25  27
ENDBRANCH  10  25
ENDBRANCH   7  10
ENDBRANCH   5   6
BRANCH   5  29
ATOM     29  CB  ASN A   4      22.377  -1.694  10.184  0.00  0.00    +0.114 C 
BRANCH  29  30
ATOM     30  CG  ASN A   4      22.847  -2.065  11.539  0.00  0.00    +0.222 C 
ATOM     31  OD1 ASN A   4      22.619  -1.313  12.489  0.00  0.00    -0.275 OA
ATOM     32  ND2 ASN A   4      23.552  -3.200  11.657  0.00  0.00    -0.329 N 
ATOM     33 HD21 ASN A   4      23.935  -3.481  12.582  0.00  0.00    +0.145 HD
ATOM     34 HD22 ASN A   4      23.716  -3.799  10.823  0.00  0.00    +0.145 HD
ENDBRANCH  29  30
ENDBRANCH   5  29
ENDBRANCH   3   5
BRANCH   1  35
ATOM     35  CA  VAL A   3      20.890   1.328   7.105  0.00  0.00    +0.149 C 
BRANCH  35  37
ATOM     36  C   PRO A   2      18.687   0.989   6.113  0.00  0.00    +0.241 C 
ATOM     37  N   VAL A   3      19.429   1.325   7.156  0.00  0.00    -0.297 N 
ATOM     38  H   VAL A   3      18.957   1.596   8.042  0.00  0.00    +0.150 HD
ATOM     39  O   PRO A   2      19.176   0.677   5.028  0.00  0.00    -0.273 OA
BRANCH  36  45
ATOM     40  C   LYS A   1      16.627  -0.631   7.969  0.00  0.00    +0.241 C 
ATOM     41  N   PRO A   2      16.528   0.646   7.584  0.00  0.00    -0.272 N 
ATOM     42  CD  PRO A   2      15.857   1.771   8.262  0.00  0.00    +0.094 C 
ATOM     43  CG  PRO A   2      15.819   2.823   7.198  0.00  0.00    +0.024 C 
ATOM     44  CB  PRO A   2      16.546   2.366   5.960  0.00  0.00    +0.031 C 
ATOM     45  CA  PRO A   2      17.156   1.010   6.295  0.00  0.00    +0.152 C 
ATOM     46  O   LYS A   1      17.268  -1.435   7.309  0.00  0.00    -0.273 OA
BRANCH  40  47
ATOM     47  CA  LYS A   1      15.957  -1.057   9.291  0.00  0.00    +0.145 C 
BRANCH  47  48
ATOM     48  N   LYS A   1      15.140  -2.189   8.857  0.00  0.00    -0.238 NA
ATOM     49  H   LYS A   1      15.322  -3.143   9.230  0.00  0.00    +0.142 HD
ENDBRANCH  47  48
BRANCH  47  50
ATOM     50  CB  LYS A   1      17.004  -1.495  10.310  0.00  0.00    +0.026 C 
BRANCH  50  51
ATOM     51  CG  LYS A   1      17.872  -0.350  10.768  0.00  0.00    -0.000 C 
BRANCH  51  52
ATOM     52  CD  LYS A   1      18.696  -0.715  11.973  0.00  0.00    -0.024 C 
BRANCH  52  53
ATOM     53  CE  LYS A   1      19.518   0.507  12.362  0.00  0.00    -0.086 C 
BRANCH  53  54
ATOM     54  NZ  LYS A   1      20.192   0.197  13.611  0.00  0.00    +0.380 N 
ATOM     55  HZ1 LYS A   1      19.484  -0.014  14.343  0.00  0.00    -0.089 HD
ATOM     56  HZ2 LYS A   1      20.764   1.013  13.906  0.00  0.00    -0.089 HD
ATOM     57  HZ3 LYS A   1      20.809  -0.629  13.475  0.00  0.00    -0.089 HD
ENDBRANCH  53  54
ENDBRANCH  52  53
ENDBRANCH  51  52
ENDBRANCH  50  51
ENDBRANCH  47  50
ENDBRANCH  40  47
ENDBRANCH  36  45
ENDBRANCH  35  37
BRANCH  35  58
ATOM     58  CB  VAL A   3      21.422   2.749   6.841  0.00  0.00    +0.027 C 
ATOM     59  CG2 VAL A   3      22.981   2.743   6.796  0.00  0.00    +0.002 C 
ATOM     60  CG1 VAL A   3      20.852   3.248   5.536  0.00  0.00    +0.002 C 
ENDBRANCH  35  58
ENDBRANCH   1  35
TORSDOF 23
REMARK  Name = ../refined-set-2016/1n3z/1n3z_pocket.pdb
REMARK  135 active torsions:
REMARK  status: ('A' for Active; 'I' for Inactive)
REMARK    1  A    between atoms: _1  and  _3
REMARK    2  A    between atoms: _3  and  _4
REMARK    3  A    between atoms: _3  and  _6
REMARK    4  A    between atoms: _6  and  _7
REMARK    5  A    between atoms: _7  and  _8
REMARK    6  A    between atoms: _8  and  _9
REMARK    7  A    between atoms: _9  and  _10
REMARK    8  A    between atoms: _14  and  _16
REMARK    9  A    between atoms: _16  and  _17
REMARK   10  A    between atoms: _16  and  _19
REMARK   11  A    between atoms: _19  and  _20
REMARK   12  A    between atoms: _26  and  _28
REMARK   13  A    between atoms: _28  and  _29
REMARK   14  A    between atoms: _28  and  _31
REMARK   15  A    between atoms: _31  and  _32
REMARK   16  A    between atoms: _32  and  _33
REMARK   17  A    between atoms: _33  and  _34
REMARK   18  A    between atoms: _43  and  _45
REMARK   19  A    between atoms: _45  and  _46
REMARK   20  A    between atoms: _45  and  _48
REMARK   21  A    between atoms: _48  and  _49
REMARK   22  A    between atoms: _49  and  _50
REMARK   23  A    between atoms: _55  and  _57
REMARK   24  A    between atoms: _57  and  _58
REMARK   25  A    between atoms: _57  and  _60
REMARK   26  A    between atoms: _60  and  _61
REMARK   27  A    between atoms: _66  and  _68
REMARK   28  A    between atoms: _68  and  _69
REMARK   29  A    between atoms: _68  and  _71
REMARK   30  A    between atoms: _71  and  _72
REMARK   31  A    between atoms: _72  and  _73
REMARK   32  A    between atoms: _75  and  _77
REMARK   33  A    between atoms: _77  and  _78
REMARK   34  A    between atoms: _77  and  _80
REMARK   35  A    between atoms: _80  and  _81
REMARK   36  A    between atoms: _81  and  _82
REMARK   37  A    between atoms: _84  and  _86
REMARK   38  A    between atoms: _86  and  _87
REMARK   39  A    between atoms: _86  and  _89
REMARK   40  A    between atoms: _89  and  _90
REMARK   41  A    between atoms: _90  and  _91
REMARK   42  A    between atoms: _91  and  _92
REMARK   43  A    between atoms: _92  and  _93
REMARK   44  A    between atoms: _97  and  _99
REMARK   45  A    between atoms: _99  and  _100
REMARK   46  A    between atoms: _99  and  _102
REMARK   47  A    between atoms: _102  and  _103
REMARK   48  A    between atoms: _103  and  _104
REMARK   49  A    between atoms: _104  and  _105
REMARK   50  A    between atoms: _105  and  _106
REMARK   51  A    between atoms: _111  and  _112
REMARK   52  A    between atoms: _117  and  _119
REMARK   53  A    between atoms: _119  and  _120
REMARK   54  A    between atoms: _119  and  _122
REMARK   55  A    between atoms: _125  and  _127
REMARK   56  A    between atoms: _127  and  _128
REMARK   57  A    between atoms: _127  and  _130
REMARK   58  A    between atoms: _130  and  _131
REMARK   59  A    between atoms: _136  and  _138
REMARK   60  A    between atoms: _138  and  _139
REMARK   61  A    between atoms: _138  and  _141
REMARK   62  A    between atoms: _141  and  _142
REMARK   63  A    between atoms: _145  and  _147
REMARK   64  A    between atoms: _147  and  _148
REMARK   65  A    between atoms: _147  and  _150
REMARK   66  A    between atoms: _150  and  _151
REMARK   67  A    between atoms: _157  and  _159
REMARK   68  A    between atoms: _159  and  _160
REMARK   69  A    between atoms: _159  and  _162
REMARK   70  A    between atoms: _162  and  _163
REMARK   71  A    between atoms: _163  and  _164
REMARK   72  A    between atoms: _164  and  _165
REMARK   73  A    between atoms: _165  and  _166
REMARK   74  A    between atoms: _170  and  _172
REMARK   75  A    between atoms: _172  and  _173
REMARK   76  A    between atoms: _172  and  _175
REMARK   77  A    between atoms: _175  and  _176
REMARK   78  A    between atoms: _179  and  _181
REMARK   79  A    between atoms: _181  and  _182
REMARK   80  A    between atoms: _181  and  _184
REMARK   81  A    between atoms: _184  and  _185
REMARK   82  A    between atoms: _188  and  _190
REMARK   83  A    between atoms: _190  and  _191
REMARK   84  A    between atoms: _190  and  _193
REMARK   85  A    between atoms: _193  and  _194
REMARK   86  A    between atoms: _197  and  _199
REMARK   87  A    between atoms: _199  and  _200
REMARK   88  A    between atoms: _199  and  _202
REMARK   89  A    between atoms: _204  and  _206
REMARK   90  A    between atoms: _206  and  _207
REMARK   91  A    between atoms: _206  and  _209
REMARK   92  A    between atoms: _209  and  _210
REMARK   93  A    between atoms: _210  and  _211
REMARK   94  A    between atoms: _211  and  _212
REMARK   95  A    between atoms: _221  and  _223
REMARK   96  A    between atoms: _223  and  _224
REMARK   97  A    between atoms: _223  and  _226
REMARK   98  A    between atoms: _226  and  _227
REMARK   99  A    between atoms: _227  and  _228
REMARK  100  A    between atoms: _228  and  _229
REMARK  101  A    between atoms: _229  and  _230
REMARK  102  A    between atoms: _234  and  _236
REMARK  103  A    between atoms: _236  and  _237
REMARK  104  A    between atoms: _236  and  _239
REMARK  105  A    between atoms: _239  and  _240
REMARK  106  A    between atoms: _245  and  _247
REMARK  107  A    between atoms: _247  and  _248
REMARK  108  A    between atoms: _247  and  _250
REMARK  109  A    between atoms: _250  and  _251
REMARK  110  A    between atoms: _254  and  _256
REMARK  111  A    between atoms: _256  and  _257
REMARK  112  A    between atoms: _260  and  _262
REMARK  113  A    between atoms: _262  and  _263
REMARK  114  A    between atoms: _262  and  _265
REMARK  115  A    between atoms: _268  and  _270
REMARK  116  A    between atoms: _270  and  _271
REMARK  117  A    between atoms: _270  and  _273
REMARK  118  A    between atoms: _273  and  _274
REMARK  119  A    between atoms: _279  and  _281
REMARK  120  A    between atoms: _281  and  _282
REMARK  121  A    between atoms: _281  and  _284
REMARK  122  A    between atoms: _284  and  _285
REMARK  123  A    between atoms: _291  and  _293
REMARK  124  A    between atoms: _293  and  _294
REMARK  125  A    between atoms: _293  and  _296
REMARK  126  A    between atoms: _296  and  _297
REMARK  127  A    between atoms: _300  and  _302
REMARK  128  A    between atoms: _302  and  _303
REMARK  129  A    between atoms: _306  and  _308
REMARK  130  A    between atoms: _308  and  _309
REMARK  131  A    between atoms: _308  and  _311
REMARK  132  A    between atoms: _311  and  _312
REMARK  133  A    between atoms: _314  and  _316
REMARK  134  A    between atoms: _316  and  _317
REMARK  135  A    between atoms: _316  and  _319
REMARK                            x       y       z     vdW  Elec       q    Type
REMARK                         _______ _______ _______ _____ _____    ______ ____
ROOT
ATOM      1  CG  LYS A   1      25.455  12.372  13.095  0.00  0.00    -0.000 C 
ENDROOT
BRANCH   1   2
ATOM      2  CB  LYS A   1      24.289  12.937  13.945  0.00  0.00    +0.025 C 
BRANCH   2   3
ATOM      3  CA  LYS A   1      24.731  14.064  14.902  0.00  0.00    +0.133 C 
BRANCH   3   4
ATOM      4  N   LYS A   1      25.560  13.530  15.962  0.00  0.00    -0.239 NA
ATOM      5  H   LYS A   1      25.746  12.508  16.011  0.00  0.00    +0.142 HD
ENDBRANCH   3   4
BRANCH   3   6
ATOM      6  C   LYS A   1      23.524  14.807  15.451  0.00  0.00    +0.224 C 
ATOM      7  O   LYS A   1      23.088  15.791  14.870  0.00  0.00    -0.287 OA
ENDBRANCH   3   6
ENDBRANCH   2   3
ENDBRANCH   1   2
BRANCH   1   8
ATOM      8  CD  LYS A   1      25.900  13.303  11.958  0.00  0.00    -0.024 C 
BRANCH   8   9
ATOM      9  CE  LYS A   1      27.232  12.838  11.295  0.00  0.00    -0.086 C 
BRANCH   9  10
ATOM     10  NZ  LYS A   1      28.538  13.143  12.043  0.00  0.00    +0.380 N 
ATOM     11  HZ1 LYS A   1      28.518  12.683  12.975  0.00  0.00    -0.089 HD
ATOM     12  HZ2 LYS A   1      28.634  14.171  12.165  0.00  0.00    -0.089 HD
ATOM     13  HZ3 LYS A   1      29.343  12.781  11.494  0.00  0.00    -0.089 HD
ENDBRANCH   9  10
ENDBRANCH   8   9
ENDBRANCH   1   8
TORSDOF 7
REMARK  Name = ../refined-set-2016/1n3z/1n3z_pocket.pdb
REMARK  135 active torsions:
REMARK  status: ('A' for Active; 'I' for Inactive)
REMARK    1  A    between atoms: _1  and  _3
REMARK    2  A    between atoms: _3  and  _4
REMARK    3  A    between atoms: _3  and  _6
REMARK    4  A    between atoms: _6  and  _7
REMARK    5  A    between atoms: _7  and  _8
REMARK    6  A    between atoms: _8  and  _9
REMARK    7  A    between atoms: _9  and  _10
REMARK    8  A    between atoms: _14  and  _16
REMARK    9  A    between atoms: _16  and  _17
REMARK   10  A    between atoms: _16  and  _19
REMARK   11  A    between atoms: _19  and  _20
REMARK   12  A    between atoms: _26  and  _28
REMARK   13  A    between atoms: _28  and  _29
REMARK   14  A    between atoms: _28  and  _31
REMARK   15  A    between atoms: _31  and  _32
REMARK   16  A    between atoms: _32  and  _33
REMARK   17  A    between atoms: _33  and  _34
REMARK   18  A    between atoms: _43  and  _45
REMARK   19  A    between atoms: _45  and  _46
REMARK   20  A    between atoms: _45  and  _48
REMARK   21  A    between atoms: _48  and  _49
REMARK   22  A    between atoms: _49  and  _50
REMARK   23  A    between atoms: _55  and  _57
REMARK   24  A    between atoms: _57  and  _58
REMARK   25  A    between atoms: _57  and  _60
REMARK   26  A    between atoms: _60  and  _61
REMARK   27  A    between atoms: _66  and  _68
REMARK   28  A    between atoms: _68  and  _69
REMARK   29  A    between atoms: _68  and  _71
REMARK   30  A    between atoms: _71  and  _72
REMARK   31  A    between atoms: _72  and  _73
REMARK   32  A    between atoms: _75  and  _77
REMARK   33  A    between atoms: _77  and  _78
REMARK   34  A    between atoms: _77  and  _80
REMARK   35  A    between atoms: _80  and  _81
REMARK   36  A    between atoms: _81  and  _82
REMARK   37  A    between atoms: _84  and  _86
REMARK   38  A    between atoms: _86  and  _87
REMARK   39  A    between atoms: _86  and  _89
REMARK   40  A    between atoms: _89  and  _90
REMARK   41  A    between atoms: _90  and  _91
REMARK   42  A    between atoms: _91  and  _92
REMARK   43  A    between atoms: _92  and  _93
REMARK   44  A    between atoms: _97  and  _99
REMARK   45  A    between atoms: _99  and  _100
REMARK   46  A    between atoms: _99  and  _102
REMARK   47  A    between atoms: _102  and  _103
REMARK   48  A    between atoms: _103  and  _104
REMARK   49  A    between atoms: _104  and  _105
REMARK   50  A    between atoms: _105  and  _106
REMARK   51  A    between atoms: _111  and  _112
REMARK   52  A    between atoms: _117  and  _119
REMARK   53  A    between atoms: _119  and  _120
REMARK   54  A    between atoms: _119  and  _122
REMARK   55  A    between atoms: _125  and  _127
REMARK   56  A    between atoms: _127  and  _128
REMARK   57  A    between atoms: _127  and  _130
REMARK   58  A    between atoms: _130  and  _131
REMARK   59  A    between atoms: _136  and  _138
REMARK   60  A    between atoms: _138  and  _139
REMARK   61  A    between atoms: _138  and  _141
REMARK   62  A    between atoms: _141  and  _142
REMARK   63  A    between atoms: _145  and  _147
REMARK   64  A    between atoms: _147  and  _148
REMARK   65  A    between atoms: _147  and  _150
REMARK   66  A    between atoms: _150  and  _151
REMARK   67  A    between atoms: _157  and  _159
REMARK   68  A    between atoms: _159  and  _160
REMARK   69  A    between atoms: _159  and  _162
REMARK   70  A    between atoms: _162  and  _163
REMARK   71  A    between atoms: _163  and  _164
REMARK   72  A    between atoms: _164  and  _165
REMARK   73  A    between atoms: _165  and  _166
REMARK   74  A    between atoms: _170  and  _172
REMARK   75  A    between atoms: _172  and  _173
REMARK   76  A    between atoms: _172  and  _175
REMARK   77  A    between atoms: _175  and  _176
REMARK   78  A    between atoms: _179  and  _181
REMARK   79  A    between atoms: _181  and  _182
REMARK   80  A    between atoms: _181  and  _184
REMARK   81  A    between atoms: _184  and  _185
REMARK   82  A    between atoms: _188  and  _190
REMARK   83  A    between atoms: _190  and  _191
REMARK   84  A    between atoms: _190  and  _193
REMARK   85  A    between atoms: _193  and  _194
REMARK   86  A    between atoms: _197  and  _199
REMARK   87  A    between atoms: _199  and  _200
REMARK   88  A    between atoms: _199  and  _202
REMARK   89  A    between atoms: _204  and  _206
REMARK   90  A    between atoms: _206  and  _207
REMARK   91  A    between atoms: _206  and  _209
REMARK   92  A    between atoms: _209  and  _210
REMARK   93  A    between atoms: _210  and  _211
REMARK   94  A    between atoms: _211  and  _212
REMARK   95  A    between atoms: _221  and  _223
REMARK   96  A    between atoms: _223  and  _224
REMARK   97  A    between atoms: _223  and  _226
REMARK   98  A    between atoms: _226  and  _227
REMARK   99  A    between atoms: _227  and  _228
REMARK  100  A    between atoms: _228  and  _229
REMARK  101  A    between atoms: _229  and  _230
REMARK  102  A    between atoms: _234  and  _236
REMARK  103  A    between atoms: _236  and  _237
REMARK  104  A    between atoms: _236  and  _239
REMARK  105  A    between atoms: _239  and  _240
REMARK  106  A    between atoms: _245  and  _247
REMARK  107  A    between atoms: _247  and  _248
REMARK  108  A    between atoms: _247  and  _250
REMARK  109  A    between atoms: _250  and  _251
REMARK  110  A    between atoms: _254  and  _256
REMARK  111  A    between atoms: _256  and  _257
REMARK  112  A    between atoms: _260  and  _262
REMARK  113  A    between atoms: _262  and  _263
REMARK  114  A    between atoms: _262  and  _265
REMARK  115  A    between atoms: _268  and  _270
REMARK  116  A    between atoms: _270  and  _271
REMARK  117  A    between atoms: _270  and  _273
REMARK  118  A    between atoms: _273  and  _274
REMARK  119  A    between atoms: _279  and  _281
REMARK  120  A    between atoms: _281  and  _282
REMARK  121  A    between atoms: _281  and  _284
REMARK  122  A    between atoms: _284  and  _285
REMARK  123  A    between atoms: _291  and  _293
REMARK  124  A    between atoms: _293  and  _294
REMARK  125  A    between atoms: _293  and  _296
REMARK  126  A    between atoms: _296  and  _297
REMARK  127  A    between atoms: _300  and  _302
REMARK  128  A    between atoms: _302  and  _303
REMARK  129  A    between atoms: _306  and  _308
REMARK  130  A    between atoms: _308  and  _309
REMARK  131  A    between atoms: _308  and  _311
REMARK  132  A    between atoms: _311  and  _312
REMARK  133  A    between atoms: _314  and  _316
REMARK  134  A    between atoms: _316  and  _317
REMARK  135  A    between atoms: _316  and  _319
REMARK                            x       y       z     vdW  Elec       q    Type
REMARK                         _______ _______ _______ _____ _____    ______ ____
ROOT
ATOM      1  C   ASP A   3      26.533  -1.957   5.128  0.00  0.00    +0.241 C 
ATOM      2  N   CYS A   4      25.337  -2.017   5.701  0.00  0.00    -0.296 N 
ATOM      3  H   CYS A   4      25.201  -1.539   6.614  0.00  0.00    +0.150 HD
ATOM      4  O   ASP A   3      26.787  -2.523   4.080  0.00  0.00    -0.273 OA
ENDROOT
BRANCH   2   5
ATOM      5  CA  CYS A   4      24.209  -2.719   5.113  0.00  0.00    +0.160 C 
BRANCH   5   6
ATOM      6  C   CYS A   4      23.210  -1.635   4.769  0.00  0.00    +0.242 C 
ATOM      7  O   CYS A   4      22.844  -0.818   5.629  0.00  0.00    -0.273 OA
ATOM      8  N   ARG A   5      22.786  -1.612   3.515  0.00  0.00    -0.298 N 
ATOM      9  H   ARG A   5      23.140  -2.318   2.838  0.00  0.00    +0.150 HD
BRANCH   8  10
ATOM     10  CA  ARG A   5      21.828  -0.607   3.074  0.00  0.00    +0.137 C 
BRANCH  10  11
ATOM     11  C   ARG A   5      20.716  -1.295   2.306  0.00  0.00    +0.227 C 
ATOM     12  O   ARG A   5      20.985  -2.120   1.431  0.00  0.00    -0.286 OA
ENDBRANCH  10  11
BRANCH  10  13
ATOM     13  CB  ARG A   5      22.488   0.419   2.148  0.00  0.00    +0.031 C 
BRANCH  13  14
ATOM     14  CG  ARG A   5      23.639   1.129   2.737  0.00  0.00    +0.045 C 
BRANCH  14  15
ATOM     15  CD  ARG A   5      24.222   2.068   1.717  0.00  0.00    +0.174 C 
BRANCH  15  16
ATOM     16  NE  ARG A   5      25.165   2.997   2.343  0.00  0.00    -0.265 N 
ATOM     17  HE  ARG A   5      24.794   3.898   2.707  0.00  0.00    +0.259 HD
ATOM     18  CZ  ARG A   5      26.468   2.759   2.475  0.00  0.00    +0.342 C 
ATOM     19  NH2 ARG A   5      27.265   3.666   3.037  0.00  0.00    -0.292 N 
ATOM     20 HH21 ARG A   5      26.870   4.567   3.376  0.00  0.00    +0.255 HD
ATOM     21 HH22 ARG A   5      28.282   3.474   3.137  0.00  0.00    +0.255 HD
ATOM     22  NH1 ARG A   5      26.984   1.621   2.031  0.00  0.00    -0.292 N 
ATOM     23 HH11 ARG A   5      28.002   1.436   2.135  0.00  0.00    +0.255 HD
ATOM     24 HH12 ARG A   5      26.370   0.913   1.579  0.00  0.00    +0.255 HD
ENDBRANCH  15  16
ENDBRANCH  14  15
ENDBRANCH  13  14
ENDBRANCH  10  13
ENDBRANCH   8  10
ENDBRANCH   5   6
BRANCH   5  25
ATOM     25  CB  CYS A   4      23.566  -3.657   6.127  0.00  0.00    +0.098 C 
ATOM     26  SG  CYS A   4      24.703  -4.952   6.689  0.00  0.00    -0.080 S 
ENDBRANCH   5  25
ENDBRANCH   2   5
BRANCH   1  27
ATOM     27  CA  ASP A   3      27.611  -1.151   5.854  0.00  0.00    +0.160 C 
BRANCH  27  30
ATOM     28  C   THR A   2      29.145  -2.695   6.969  0.00  0.00    +0.243 C 
ATOM     29  O   THR A   2      28.491  -2.662   8.031  0.00  0.00    -0.273 OA
ATOM     30  N   ASP A   3      28.817  -1.979   5.900  0.00  0.00    -0.296 N 
ATOM     31  H   ASP A   3      29.438  -2.008   5.067  0.00  0.00    +0.150 HD
BRANCH  28  32
ATOM     32  CA  THR A   2      30.416  -3.560   6.869  0.00  0.00    +0.176 C 
BRANCH  32  34
ATOM     33  C   ILE A   1      32.525  -2.930   7.914  0.00  0.00    +0.238 C 
ATOM     34  N   THR A   2      31.239  -3.221   8.017  0.00  0.00    -0.295 N 
ATOM     35  H   THR A   2      30.799  -3.207   8.959  0.00  0.00    +0.150 HD
ATOM     36  O   ILE A   1      33.142  -3.008   6.838  0.00  0.00    -0.274 OA
BRANCH  33  37
ATOM     37  CA  ILE A   1      33.227  -2.527   9.239  0.00  0.00    +0.145 C 
BRANCH  37  38
ATOM     38  N   ILE A   1      34.681  -2.569   9.077  0.00  0.00    -0.238 NA
ATOM     39  H   ILE A   1      35.109  -2.168   8.218  0.00  0.00    +0.142 HD
ENDBRANCH  37  38
BRANCH  37  40
ATOM     40  CB  ILE A   1      32.756  -1.101   9.660  0.00  0.00    +0.025 C 
ATOM     41  CG2 ILE A   1      33.569  -0.583  10.836  0.00  0.00    +0.002 C 
BRANCH  40  42
ATOM     42  CG1 ILE A   1      32.910  -0.125   8.479  0.00  0.00    +0.002 C 
ATOM     43  CD1 ILE A   1      32.285   1.247   8.722  0.00  0.00    +0.000 C 
ENDBRANCH  40  42
ENDBRANCH  37  40
ENDBRANCH  33  37
ENDBRANCH  32  34
BRANCH  32  44
ATOM     44  CB  THR A   2      30.000  -5.054   6.873  0.00  0.00    +0.137 C 
ATOM     45  CG2 THR A   2      29.039  -5.355   5.692  0.00  0.00    +0.034 C 
BRANCH  44  46
ATOM     46  OG1 THR A   2      31.166  -5.875   6.751  0.00  0.00    -0.382 OA
ATOM     47  HG1 THR A   2      31.773  -5.699   7.513  0.00  0.00    +0.210 HD
ENDBRANCH  44  46
ENDBRANCH  32  44
ENDBRANCH  28  32
ENDBRANCH  27  30
BRANCH  27  48
ATOM     48  CB  ASP A   3      27.861   0.132   5.049  0.00  0.00    +0.143 C 
BRANCH  48  49
ATOM     49  CG  ASP A   3      28.706   1.157   5.803  0.00  0.00    +0.367 C 
ATOM     50  OD2 ASP A   3      28.495   1.354   7.025  0.00  0.00    -0.246 OA
ATOM     51  OD1 ASP A   3      29.574   1.796   5.183  0.00  0.00    -0.246 OA
ENDBRANCH  48  49
ENDBRANCH  27  48
ENDBRANCH   1  27
TORSDOF 21
REMARK  Name = ../refined-set-2016/1n3z/1n3z_pocket.pdb
REMARK  135 active torsions:
REMARK  status: ('A' for Active; 'I' for Inactive)
REMARK    1  A    between atoms: _1  and  _3
REMARK    2  A    between atoms: _3  and  _4
REMARK    3  A    between atoms: _3  and  _6
REMARK    4  A    between atoms: _6  and  _7
REMARK    5  A    between atoms: _7  and  _8
REMARK    6  A    between atoms: _8  and  _9
REMARK    7  A    between atoms: _9  and  _10
REMARK    8  A    between atoms: _14  and  _16
REMARK    9  A    between atoms: _16  and  _17
REMARK   10  A    between atoms: _16  and  _19
REMARK   11  A    between atoms: _19  and  _20
REMARK   12  A    between atoms: _26  and  _28
REMARK   13  A    between atoms: _28  and  _29
REMARK   14  A    between atoms: _28  and  _31
REMARK   15  A    between atoms: _31  and  _32
REMARK   16  A    between atoms: _32  and  _33
REMARK   17  A    between atoms: _33  and  _34
REMARK   18  A    between atoms: _43  and  _45
REMARK   19  A    between atoms: _45  and  _46
REMARK   20  A    between atoms: _45  and  _48
REMARK   21  A    between atoms: _48  and  _49
REMARK   22  A    between atoms: _49  and  _50
REMARK   23  A    between atoms: _55  and  _57
REMARK   24  A    between atoms: _57  and  _58
REMARK   25  A    between atoms: _57  and  _60
REMARK   26  A    between atoms: _60  and  _61
REMARK   27  A    between atoms: _66  and  _68
REMARK   28  A    between atoms: _68  and  _69
REMARK   29  A    between atoms: _68  and  _71
REMARK   30  A    between atoms: _71  and  _72
REMARK   31  A    between atoms: _72  and  _73
REMARK   32  A    between atoms: _75  and  _77
REMARK   33  A    between atoms: _77  and  _78
REMARK   34  A    between atoms: _77  and  _80
REMARK   35  A    between atoms: _80  and  _81
REMARK   36  A    between atoms: _81  and  _82
REMARK   37  A    between atoms: _84  and  _86
REMARK   38  A    between atoms: _86  and  _87
REMARK   39  A    between atoms: _86  and  _89
REMARK   40  A    between atoms: _89  and  _90
REMARK   41  A    between atoms: _90  and  _91
REMARK   42  A    between atoms: _91  and  _92
REMARK   43  A    between atoms: _92  and  _93
REMARK   44  A    between atoms: _97  and  _99
REMARK   45  A    between atoms: _99  and  _100
REMARK   46  A    between atoms: _99  and  _102
REMARK   47  A    between atoms: _102  and  _103
REMARK   48  A    between atoms: _103  and  _104
REMARK   49  A    between atoms: _104  and  _105
REMARK   50  A    between atoms: _105  and  _106
REMARK   51  A    between atoms: _111  and  _112
REMARK   52  A    between atoms: _117  and  _119
REMARK   53  A    between atoms: _119  and  _120
REMARK   54  A    between atoms: _119  and  _122
REMARK   55  A    between atoms: _125  and  _127
REMARK   56  A    between atoms: _127  and  _128
REMARK   57  A    between atoms: _127  and  _130
REMARK   58  A    between atoms: _130  and  _131
REMARK   59  A    between atoms: _136  and  _138
REMARK   60  A    between atoms: _138  and  _139
REMARK   61  A    between atoms: _138  and  _141
REMARK   62  A    between atoms: _141  and  _142
REMARK   63  A    between atoms: _145  and  _147
REMARK   64  A    between atoms: _147  and  _148
REMARK   65  A    between atoms: _147  and  _150
REMARK   66  A    between atoms: _150  and  _151
REMARK   67  A    between atoms: _157  and  _159
REMARK   68  A    between atoms: _159  and  _160
REMARK   69  A    between atoms: _159  and  _162
REMARK   70  A    between atoms: _162  and  _163
REMARK   71  A    between atoms: _163  and  _164
REMARK   72  A    between atoms: _164  and  _165
REMARK   73  A    between atoms: _165  and  _166
REMARK   74  A    between atoms: _170  and  _172
REMARK   75  A    between atoms: _172  and  _173
REMARK   76  A    between atoms: _172  and  _175
REMARK   77  A    between atoms: _175  and  _176
REMARK   78  A    between atoms: _179  and  _181
REMARK   79  A    between atoms: _181  and  _182
REMARK   80  A    between atoms: _181  and  _184
REMARK   81  A    between atoms: _184  and  _185
REMARK   82  A    between atoms: _188  and  _190
REMARK   83  A    between atoms: _190  and  _191
REMARK   84  A    between atoms: _190  and  _193
REMARK   85  A    between atoms: _193  and  _194
REMARK   86  A    between atoms: _197  and  _199
REMARK   87  A    between atoms: _199  and  _200
REMARK   88  A    between atoms: _199  and  _202
REMARK   89  A    between atoms: _204  and  _206
REMARK   90  A    between atoms: _206  and  _207
REMARK   91  A    between atoms: _206  and  _209
REMARK   92  A    between atoms: _209  and  _210
REMARK   93  A    between atoms: _210  and  _211
REMARK   94  A    between atoms: _211  and  _212
REMARK   95  A    between atoms: _221  and  _223
REMARK   96  A    between atoms: _223  and  _224
REMARK   97  A    between atoms: _223  and  _226
REMARK   98  A    between atoms: _226  and  _227
REMARK   99  A    between atoms: _227  and  _228
REMARK  100  A    between atoms: _228  and  _229
REMARK  101  A    between atoms: _229  and  _230
REMARK  102  A    between atoms: _234  and  _236
REMARK  103  A    between atoms: _236  and  _237
REMARK  104  A    between atoms: _236  and  _239
REMARK  105  A    between atoms: _239  and  _240
REMARK  106  A    between atoms: _245  and  _247
REMARK  107  A    between atoms: _247  and  _248
REMARK  108  A    between atoms: _247  and  _250
REMARK  109  A    between atoms: _250  and  _251
REMARK  110  A    between atoms: _254  and  _256
REMARK  111  A    between atoms: _256  and  _257
REMARK  112  A    between atoms: _260  and  _262
REMARK  113  A    between atoms: _262  and  _263
REMARK  114  A    between atoms: _262  and  _265
REMARK  115  A    between atoms: _268  and  _270
REMARK  116  A    between atoms: _270  and  _271
REMARK  117  A    between atoms: _270  and  _273
REMARK  118  A    between atoms: _273  and  _274
REMARK  119  A    between atoms: _279  and  _281
REMARK  120  A    between atoms: _281  and  _282
REMARK  121  A    between atoms: _281  and  _284
REMARK  122  A    between atoms: _284  and  _285
REMARK  123  A    between atoms: _291  and  _293
REMARK  124  A    between atoms: _293  and  _294
REMARK  125  A    between atoms: _293  and  _296
REMARK  126  A    between atoms: _296  and  _297
REMARK  127  A    between atoms: _300  and  _302
REMARK  128  A    between atoms: _302  and  _303
REMARK  129  A    between atoms: _306  and  _308
REMARK  130  A    between atoms: _308  and  _309
REMARK  131  A    between atoms: _308  and  _311
REMARK  132  A    between atoms: _311  and  _312
REMARK  133  A    between atoms: _314  and  _316
REMARK  134  A    between atoms: _316  and  _317
REMARK  135  A    between atoms: _316  and  _319
REMARK                            x       y       z     vdW  Elec       q    Type
REMARK                         _______ _______ _______ _____ _____    ______ ____
ROOT
ATOM      1  C   LYS A   1      36.780   3.831   9.849  0.00  0.00    +0.238 C 
ATOM      2  O   LYS A   1      36.742   2.865  10.612  0.00  0.00    -0.274 OA
ATOM      3  N   HIS A   2      36.814   5.088  10.272  0.00  0.00    -0.298 N 
ATOM      4  H   HIS A   2      36.892   5.869   9.589  0.00  0.00    +0.150 HD
ENDROOT
BRANCH   1   5
ATOM      5  CA  LYS A   1      36.784   3.633   8.360  0.00  0.00    +0.145 C 
BRANCH   5   6
ATOM      6  N   LYS A   1      36.967   2.220   8.036  0.00  0.00    -0.238 NA
ATOM      7  H   LYS A   1      36.562   1.501   8.669  0.00  0.00    +0.142 HD
ENDBRANCH   5   6
BRANCH   5   8
ATOM      8  CB  LYS A   1      35.437   4.144   7.863  0.00  0.00    +0.026 C 
BRANCH   8   9
ATOM      9  CG  LYS A   1      35.098   3.784   6.452  0.00  0.00    -0.000 C 
BRANCH   9  10
ATOM     10  CD  LYS A   1      33.648   4.084   6.228  0.00  0.00    -0.024 C 
BRANCH  10  11
ATOM     11  CE  LYS A   1      33.470   5.494   5.734  0.00  0.00    -0.086 C 
BRANCH  11  12
ATOM     12  NZ  LYS A   1      34.166   5.624   4.416  0.00  0.00    +0.380 N 
ATOM     13  HZ1 LYS A   1      35.177   5.414   4.537  0.00  0.00    -0.089 HD
ATOM     14  HZ2 LYS A   1      34.053   6.594   4.060  0.00  0.00    -0.089 HD
ATOM     15  HZ3 LYS A   1      33.750   4.954   3.738  0.00  0.00    -0.089 HD
ENDBRANCH  11  12
ENDBRANCH  10  11
ENDBRANCH   9  10
ENDBRANCH   8   9
ENDBRANCH   5   8
ENDBRANCH   1   5
BRANCH   3  16
ATOM     16  CA  HIS A   2      36.742   5.365  11.691  0.00  0.00    +0.143 C 
BRANCH  16  17
ATOM     17  C   HIS A   2      35.240   5.277  12.053  0.00  0.00    +0.227 C 
ATOM     18  O   HIS A   2      34.375   5.520  11.204  0.00  0.00    -0.286 OA
ENDBRANCH  16  17
BRANCH  16  19
ATOM     19  CB  HIS A   2      37.242   6.792  12.005  0.00  0.00    +0.075 C 
BRANCH  19  20
ATOM     20  CG  HIS A   2      38.730   6.960  11.885  0.00  0.00    +0.082 A 
ATOM     21  ND1 HIS A   2      39.589   7.045  12.966  0.00  0.00    -0.227 NA
ATOM     22  CE1 HIS A   2      40.865   7.121  12.491  0.00  0.00    +0.199 A 
ATOM     23  NE2 HIS A   2      40.880   7.098  11.171  0.00  0.00    -0.221 NA
ATOM     24  CD2 HIS A   2      39.520   7.000  10.777  0.00  0.00    +0.115 A 
ENDBRANCH  19  20
ENDBRANCH  16  19
ENDBRANCH   3  16
TORSDOF 11
REMARK  Name = ../refined-set-2016/1n3z/1n3z_pocket.pdb
REMARK  135 active torsions:
REMARK  status: ('A' for Active; 'I' for Inactive)
REMARK    1  A    between atoms: _1  and  _3
REMARK    2  A    between atoms: _3  and  _4
REMARK    3  A    between atoms: _3  and  _6
REMARK    4  A    between atoms: _6  and  _7
REMARK    5  A    between atoms: _7  and  _8
REMARK    6  A    between atoms: _8  and  _9
REMARK    7  A    between atoms: _9  and  _10
REMARK    8  A    between atoms: _14  and  _16
REMARK    9  A    between atoms: _16  and  _17
REMARK   10  A    between atoms: _16  and  _19
REMARK   11  A    between atoms: _19  and  _20
REMARK   12  A    between atoms: _26  and  _28
REMARK   13  A    between atoms: _28  and  _29
REMARK   14  A    between atoms: _28  and  _31
REMARK   15  A    between atoms: _31  and  _32
REMARK   16  A    between atoms: _32  and  _33
REMARK   17  A    between atoms: _33  and  _34
REMARK   18  A    between atoms: _43  and  _45
REMARK   19  A    between atoms: _45  and  _46
REMARK   20  A    between atoms: _45  and  _48
REMARK   21  A    between atoms: _48  and  _49
REMARK   22  A    between atoms: _49  and  _50
REMARK   23  A    between atoms: _55  and  _57
REMARK   24  A    between atoms: _57  and  _58
REMARK   25  A    between atoms: _57  and  _60
REMARK   26  A    between atoms: _60  and  _61
REMARK   27  A    between atoms: _66  and  _68
REMARK   28  A    between atoms: _68  and  _69
REMARK   29  A    between atoms: _68  and  _71
REMARK   30  A    between atoms: _71  and  _72
REMARK   31  A    between atoms: _72  and  _73
REMARK   32  A    between atoms: _75  and  _77
REMARK   33  A    between atoms: _77  and  _78
REMARK   34  A    between atoms: _77  and  _80
REMARK   35  A    between atoms: _80  and  _81
REMARK   36  A    between atoms: _81  and  _82
REMARK   37  A    between atoms: _84  and  _86
REMARK   38  A    between atoms: _86  and  _87
REMARK   39  A    between atoms: _86  and  _89
REMARK   40  A    between atoms: _89  and  _90
REMARK   41  A    between atoms: _90  and  _91
REMARK   42  A    between atoms: _91  and  _92
REMARK   43  A    between atoms: _92  and  _93
REMARK   44  A    between atoms: _97  and  _99
REMARK   45  A    between atoms: _99  and  _100
REMARK   46  A    between atoms: _99  and  _102
REMARK   47  A    between atoms: _102  and  _103
REMARK   48  A    between atoms: _103  and  _104
REMARK   49  A    between atoms: _104  and  _105
REMARK   50  A    between atoms: _105  and  _106
REMARK   51  A    between atoms: _111  and  _112
REMARK   52  A    between atoms: _117  and  _119
REMARK   53  A    between atoms: _119  and  _120
REMARK   54  A    between atoms: _119  and  _122
REMARK   55  A    between atoms: _125  and  _127
REMARK   56  A    between atoms: _127  and  _128
REMARK   57  A    between atoms: _127  and  _130
REMARK   58  A    between atoms: _130  and  _131
REMARK   59  A    between atoms: _136  and  _138
REMARK   60  A    between atoms: _138  and  _139
REMARK   61  A    between atoms: _138  and  _141
REMARK   62  A    between atoms: _141  and  _142
REMARK   63  A    between atoms: _145  and  _147
REMARK   64  A    between atoms: _147  and  _148
REMARK   65  A    between atoms: _147  and  _150
REMARK   66  A    between atoms: _150  and  _151
REMARK   67  A    between atoms: _157  and  _159
REMARK   68  A    between atoms: _159  and  _160
REMARK   69  A    between atoms: _159  and  _162
REMARK   70  A    between atoms: _162  and  _163
REMARK   71  A    between atoms: _163  and  _164
REMARK   72  A    between atoms: _164  and  _165
REMARK   73  A    between atoms: _165  and  _166
REMARK   74  A    between atoms: _170  and  _172
REMARK   75  A    between atoms: _172  and  _173
REMARK   76  A    between atoms: _172  and  _175
REMARK   77  A    between atoms: _175  and  _176
REMARK   78  A    between atoms: _179  and  _181
REMARK   79  A    between atoms: _181  and  _182
REMARK   80  A    between atoms: _181  and  _184
REMARK   81  A    between atoms: _184  and  _185
REMARK   82  A    between atoms: _188  and  _190
REMARK   83  A    between atoms: _190  and  _191
REMARK   84  A    between atoms: _190  and  _193
REMARK   85  A    between atoms: _193  and  _194
REMARK   86  A    between atoms: _197  and  _199
REMARK   87  A    between atoms: _199  and  _200
REMARK   88  A    between atoms: _199  and  _202
REMARK   89  A    between atoms: _204  and  _206
REMARK   90  A    between atoms: _206  and  _207
REMARK   91  A    between atoms: _206  and  _209
REMARK   92  A    between atoms: _209  and  _210
REMARK   93  A    between atoms: _210  and  _211
REMARK   94  A    between atoms: _211  and  _212
REMARK   95  A    between atoms: _221  and  _223
REMARK   96  A    between atoms: _223  and  _224
REMARK   97  A    between atoms: _223  and  _226
REMARK   98  A    between atoms: _226  and  _227
REMARK   99  A    between atoms: _227  and  _228
REMARK  100  A    between atoms: _228  and  _229
REMARK  101  A    between atoms: _229  and  _230
REMARK  102  A    between atoms: _234  and  _236
REMARK  103  A    between atoms: _236  and  _237
REMARK  104  A    between atoms: _236  and  _239
REMARK  105  A    between atoms: _239  and  _240
REMARK  106  A    between atoms: _245  and  _247
REMARK  107  A    between atoms: _247  and  _248
REMARK  108  A    between atoms: _247  and  _250
REMARK  109  A    between atoms: _250  and  _251
REMARK  110  A    between atoms: _254  and  _256
REMARK  111  A    between atoms: _256  and  _257
REMARK  112  A    between atoms: _260  and  _262
REMARK  113  A    between atoms: _262  and  _263
REMARK  114  A    between atoms: _262  and  _265
REMARK  115  A    between atoms: _268  and  _270
REMARK  116  A    between atoms: _270  and  _271
REMARK  117  A    between atoms: _270  and  _273
REMARK  118  A    between atoms: _273  and  _274
REMARK  119  A    between atoms: _279  and  _281
REMARK  120  A    between atoms: _281  and  _282
REMARK  121  A    between atoms: _281  and  _284
REMARK  122  A    between atoms: _284  and  _285
REMARK  123  A    between atoms: _291  and  _293
REMARK  124  A    between atoms: _293  and  _294
REMARK  125  A    between atoms: _293  and  _296
REMARK  126  A    between atoms: _296  and  _297
REMARK  127  A    between atoms: _300  and  _302
REMARK  128  A    between atoms: _302  and  _303
REMARK  129  A    between atoms: _306  and  _308
REMARK  130  A    between atoms: _308  and  _309
REMARK  131  A    between atoms: _308  and  _311
REMARK  132  A    between atoms: _311  and  _312
REMARK  133  A    between atoms: _314  and  _316
REMARK  134  A    between atoms: _316  and  _317
REMARK  135  A    between atoms: _316  and  _319
REMARK                            x       y       z     vdW  Elec       q    Type
REMARK                         _______ _______ _______ _____ _____    ______ ____
ROOT
ATOM      1  CA  ILE A   1      31.779   7.460  15.889  0.00  0.00    +0.133 C 
ENDROOT
BRANCH   1   2
ATOM      2  N   ILE A   1      32.115   6.463  14.889  0.00  0.00    -0.239 NA
ATOM      3  H   ILE A   1      31.384   6.138  14.224  0.00  0.00    +0.142 HD
ENDBRANCH   1   2
BRANCH   1   4
ATOM      4  C   ILE A   1      30.595   6.853  16.635  0.00  0.00    +0.224 C 
ATOM      5  O   ILE A   1      29.601   6.492  16.001  0.00  0.00    -0.287 OA
ENDBRANCH   1   4
BRANCH   1   6
ATOM      6  CB  ILE A   1      31.352   8.814  15.274  0.00  0.00    +0.023 C 
ATOM      7  CG2 ILE A   1      30.896   9.742  16.401  0.00  0.00    +0.002 C 
BRANCH   6   8
ATOM      8  CG1 ILE A   1      32.527   9.438  14.524  0.00  0.00    +0.002 C 
ATOM      9  CD1 ILE A   1      32.166  10.646  13.728  0.00  0.00    +0.000 C 
ENDBRANCH   6   8
ENDBRANCH   1   6
TORSDOF 4
REMARK  Name = ../refined-set-2016/1n3z/1n3z_pocket.pdb
REMARK  135 active torsions:
REMARK  status: ('A' for Active; 'I' for Inactive)
REMARK    1  A    between atoms: _1  and  _3
REMARK    2  A    between atoms: _3  and  _4
REMARK    3  A    between atoms: _3  and  _6
REMARK    4  A    between atoms: _6  and  _7
REMARK    5  A    between atoms: _7  and  _8
REMARK    6  A    between atoms: _8  and  _9
REMARK    7  A    between atoms: _9  and  _10
REMARK    8  A    between atoms: _14  and  _16
REMARK    9  A    between atoms: _16  and  _17
REMARK   10  A    between atoms: _16  and  _19
REMARK   11  A    between atoms: _19  and  _20
REMARK   12  A    between atoms: _26  and  _28
REMARK   13  A    between atoms: _28  and  _29
REMARK   14  A    between atoms: _28  and  _31
REMARK   15  A    between atoms: _31  and  _32
REMARK   16  A    between atoms: _32  and  _33
REMARK   17  A    between atoms: _33  and  _34
REMARK   18  A    between atoms: _43  and  _45
REMARK   19  A    between atoms: _45  and  _46
REMARK   20  A    between atoms: _45  and  _48
REMARK   21  A    between atoms: _48  and  _49
REMARK   22  A    between atoms: _49  and  _50
REMARK   23  A    between atoms: _55  and  _57
REMARK   24  A    between atoms: _57  and  _58
REMARK   25  A    between atoms: _57  and  _60
REMARK   26  A    between atoms: _60  and  _61
REMARK   27  A    between atoms: _66  and  _68
REMARK   28  A    between atoms: _68  and  _69
REMARK   29  A    between atoms: _68  and  _71
REMARK   30  A    between atoms: _71  and  _72
REMARK   31  A    between atoms: _72  and  _73
REMARK   32  A    between atoms: _75  and  _77
REMARK   33  A    between atoms: _77  and  _78
REMARK   34  A    between atoms: _77  and  _80
REMARK   35  A    between atoms: _80  and  _81
REMARK   36  A    between atoms: _81  and  _82
REMARK   37  A    between atoms: _84  and  _86
REMARK   38  A    between atoms: _86  and  _87
REMARK   39  A    between atoms: _86  and  _89
REMARK   40  A    between atoms: _89  and  _90
REMARK   41  A    between atoms: _90  and  _91
REMARK   42  A    between atoms: _91  and  _92
REMARK   43  A    between atoms: _92  and  _93
REMARK   44  A    between atoms: _97  and  _99
REMARK   45  A    between atoms: _99  and  _100
REMARK   46  A    between atoms: _99  and  _102
REMARK   47  A    between atoms: _102  and  _103
REMARK   48  A    between atoms: _103  and  _104
REMARK   49  A    between atoms: _104  and  _105
REMARK   50  A    between atoms: _105  and  _106
REMARK   51  A    between atoms: _111  and  _112
REMARK   52  A    between atoms: _117  and  _119
REMARK   53  A    between atoms: _119  and  _120
REMARK   54  A    between atoms: _119  and  _122
REMARK   55  A    between atoms: _125  and  _127
REMARK   56  A    between atoms: _127  and  _128
REMARK   57  A    between atoms: _127  and  _130
REMARK   58  A    between atoms: _130  and  _131
REMARK   59  A    between atoms: _136  and  _138
REMARK   60  A    between atoms: _138  and  _139
REMARK   61  A    between atoms: _138  and  _141
REMARK   62  A    between atoms: _141  and  _142
REMARK   63  A    between atoms: _145  and  _147
REMARK   64  A    between atoms: _147  and  _148
REMARK   65  A    between atoms: _147  and  _150
REMARK   66  A    between atoms: _150  and  _151
REMARK   67  A    between atoms: _157  and  _159
REMARK   68  A    between atoms: _159  and  _160
REMARK   69  A    between atoms: _159  and  _162
REMARK   70  A    between atoms: _162  and  _163
REMARK   71  A    between atoms: _163  and  _164
REMARK   72  A    between atoms: _164  and  _165
REMARK   73  A    between atoms: _165  and  _166
REMARK   74  A    between atoms: _170  and  _172
REMARK   75  A    between atoms: _172  and  _173
REMARK   76  A    between atoms: _172  and  _175
REMARK   77  A    between atoms: _175  and  _176
REMARK   78  A    between atoms: _179  and  _181
REMARK   79  A    between atoms: _181  and  _182
REMARK   80  A    between atoms: _181  and  _184
REMARK   81  A    between atoms: _184  and  _185
REMARK   82  A    between atoms: _188  and  _190
REMARK   83  A    between atoms: _190  and  _191
REMARK   84  A    between atoms: _190  and  _193
REMARK   85  A    between atoms: _193  and  _194
REMARK   86  A    between atoms: _197  and  _199
REMARK   87  A    between atoms: _199  and  _200
REMARK   88  A    between atoms: _199  and  _202
REMARK   89  A    between atoms: _204  and  _206
REMARK   90  A    between atoms: _206  and  _207
REMARK   91  A    between atoms: _206  and  _209
REMARK   92  A    between atoms: _209  and  _210
REMARK   93  A    between atoms: _210  and  _211
REMARK   94  A    between atoms: _211  and  _212
REMARK   95  A    between atoms: _221  and  _223
REMARK   96  A    between atoms: _223  and  _224
REMARK   97  A    between atoms: _223  and  _226
REMARK   98  A    between atoms: _226  and  _227
REMARK   99  A    between atoms: _227  and  _228
REMARK  100  A    between atoms: _228  and  _229
REMARK  101  A    between atoms: _229  and  _230
REMARK  102  A    between atoms: _234  and  _236
REMARK  103  A    between atoms: _236  and  _237
REMARK  104  A    between atoms: _236  and  _239
REMARK  105  A    between atoms: _239  and  _240
REMARK  106  A    between atoms: _245  and  _247
REMARK  107  A    between atoms: _247  and  _248
REMARK  108  A    between atoms: _247  and  _250
REMARK  109  A    between atoms: _250  and  _251
REMARK  110  A    between atoms: _254  and  _256
REMARK  111  A    between atoms: _256  and  _257
REMARK  112  A    between atoms: _260  and  _262
REMARK  113  A    between atoms: _262  and  _263
REMARK  114  A    between atoms: _262  and  _265
REMARK  115  A    between atoms: _268  and  _270
REMARK  116  A    between atoms: _270  and  _271
REMARK  117  A    between atoms: _270  and  _273
REMARK  118  A    between atoms: _273  and  _274
REMARK  119  A    between atoms: _279  and  _281
REMARK  120  A    between atoms: _281  and  _282
REMARK  121  A    between atoms: _281  and  _284
REMARK  122  A    between atoms: _284  and  _285
REMARK  123  A    between atoms: _291  and  _293
REMARK  124  A    between atoms: _293  and  _294
REMARK  125  A    between atoms: _293  and  _296
REMARK  126  A    between atoms: _296  and  _297
REMARK  127  A    between atoms: _300  and  _302
REMARK  128  A    between atoms: _302  and  _303
REMARK  129  A    between atoms: _306  and  _308
REMARK  130  A    between atoms: _308  and  _309
REMARK  131  A    between atoms: _308  and  _311
REMARK  132  A    between atoms: _311  and  _312
REMARK  133  A    between atoms: _314  and  _316
REMARK  134  A    between atoms: _316  and  _317
REMARK  135  A    between atoms: _316  and  _319
REMARK                            x       y       z     vdW  Elec       q    Type
REMARK                         _______ _______ _______ _____ _____    ______ ____
ROOT
ATOM      1  CA  ALA A   1      27.683   7.715  21.598  0.00  0.00    +0.133 C 
ATOM      2  CB  ALA A   1      26.200   8.092  21.558  0.00  0.00    +0.027 C 
ENDROOT
BRANCH   1   3
ATOM      3  N   ALA A   1      28.080   6.967  20.408  0.00  0.00    -0.239 NA
ATOM      4  H   ALA A   1      27.382   6.371  19.918  0.00  0.00    +0.142 HD
ENDBRANCH   1   3
BRANCH   1   5
ATOM      5  C   ALA A   1      27.963   6.735  22.759  0.00  0.00    +0.224 C 
ATOM      6  O   ALA A   1      27.816   5.518  22.608  0.00  0.00    -0.287 OA
ENDBRANCH   1   5
TORSDOF 2
REMARK  Name = ../refined-set-2016/1n3z/1n3z_pocket.pdb
REMARK  135 active torsions:
REMARK  status: ('A' for Active; 'I' for Inactive)
REMARK    1  A    between atoms: _1  and  _3
REMARK    2  A    between atoms: _3  and  _4
REMARK    3  A    between atoms: _3  and  _6
REMARK    4  A    between atoms: _6  and  _7
REMARK    5  A    between atoms: _7  and  _8
REMARK    6  A    between atoms: _8  and  _9
REMARK    7  A    between atoms: _9  and  _10
REMARK    8  A    between atoms: _14  and  _16
REMARK    9  A    between atoms: _16  and  _17
REMARK   10  A    between atoms: _16  and  _19
REMARK   11  A    between atoms: _19  and  _20
REMARK   12  A    between atoms: _26  and  _28
REMARK   13  A    between atoms: _28  and  _29
REMARK   14  A    between atoms: _28  and  _31
REMARK   15  A    between atoms: _31  and  _32
REMARK   16  A    between atoms: _32  and  _33
REMARK   17  A    between atoms: _33  and  _34
REMARK   18  A    between atoms: _43  and  _45
REMARK   19  A    between atoms: _45  and  _46
REMARK   20  A    between atoms: _45  and  _48
REMARK   21  A    between atoms: _48  and  _49
REMARK   22  A    between atoms: _49  and  _50
REMARK   23  A    between atoms: _55  and  _57
REMARK   24  A    between atoms: _57  and  _58
REMARK   25  A    between atoms: _57  and  _60
REMARK   26  A    between atoms: _60  and  _61
REMARK   27  A    between atoms: _66  and  _68
REMARK   28  A    between atoms: _68  and  _69
REMARK   29  A    between atoms: _68  and  _71
REMARK   30  A    between atoms: _71  and  _72
REMARK   31  A    between atoms: _72  and  _73
REMARK   32  A    between atoms: _75  and  _77
REMARK   33  A    between atoms: _77  and  _78
REMARK   34  A    between atoms: _77  and  _80
REMARK   35  A    between atoms: _80  and  _81
REMARK   36  A    between atoms: _81  and  _82
REMARK   37  A    between atoms: _84  and  _86
REMARK   38  A    between atoms: _86  and  _87
REMARK   39  A    between atoms: _86  and  _89
REMARK   40  A    between atoms: _89  and  _90
REMARK   41  A    between atoms: _90  and  _91
REMARK   42  A    between atoms: _91  and  _92
REMARK   43  A    between atoms: _92  and  _93
REMARK   44  A    between atoms: _97  and  _99
REMARK   45  A    between atoms: _99  and  _100
REMARK   46  A    between atoms: _99  and  _102
REMARK   47  A    between atoms: _102  and  _103
REMARK   48  A    between atoms: _103  and  _104
REMARK   49  A    between atoms: _104  and  _105
REMARK   50  A    between atoms: _105  and  _106
REMARK   51  A    between atoms: _111  and  _112
REMARK   52  A    between atoms: _117  and  _119
REMARK   53  A    between atoms: _119  and  _120
REMARK   54  A    between atoms: _119  and  _122
REMARK   55  A    between atoms: _125  and  _127
REMARK   56  A    between atoms: _127  and  _128
REMARK   57  A    between atoms: _127  and  _130
REMARK   58  A    between atoms: _130  and  _131
REMARK   59  A    between atoms: _136  and  _138
REMARK   60  A    between atoms: _138  and  _139
REMARK   61  A    between atoms: _138  and  _141
REMARK   62  A    between atoms: _141  and  _142
REMARK   63  A    between atoms: _145  and  _147
REMARK   64  A    between atoms: _147  and  _148
REMARK   65  A    between atoms: _147  and  _150
REMARK   66  A    between atoms: _150  and  _151
REMARK   67  A    between atoms: _157  and  _159
REMARK   68  A    between atoms: _159  and  _160
REMARK   69  A    between atoms: _159  and  _162
REMARK   70  A    between atoms: _162  and  _163
REMARK   71  A    between atoms: _163  and  _164
REMARK   72  A    between atoms: _164  and  _165
REMARK   73  A    between atoms: _165  and  _166
REMARK   74  A    between atoms: _170  and  _172
REMARK   75  A    between atoms: _172  and  _173
REMARK   76  A    between atoms: _172  and  _175
REMARK   77  A    between atoms: _175  and  _176
REMARK   78  A    between atoms: _179  and  _181
REMARK   79  A    between atoms: _181  and  _182
REMARK   80  A    between atoms: _181  and  _184
REMARK   81  A    between atoms: _184  and  _185
REMARK   82  A    between atoms: _188  and  _190
REMARK   83  A    between atoms: _190  and  _191
REMARK   84  A    between atoms: _190  and  _193
REMARK   85  A    between atoms: _193  and  _194
REMARK   86  A    between atoms: _197  and  _199
REMARK   87  A    between atoms: _199  and  _200
REMARK   88  A    between atoms: _199  and  _202
REMARK   89  A    between atoms: _204  and  _206
REMARK   90  A    between atoms: _206  and  _207
REMARK   91  A    between atoms: _206  and  _209
REMARK   92  A    between atoms: _209  and  _210
REMARK   93  A    between atoms: _210  and  _211
REMARK   94  A    between atoms: _211  and  _212
REMARK   95  A    between atoms: _221  and  _223
REMARK   96  A    between atoms: _223  and  _224
REMARK   97  A    between atoms: _223  and  _226
REMARK   98  A    between atoms: _226  and  _227
REMARK   99  A    between atoms: _227  and  _228
REMARK  100  A    between atoms: _228  and  _229
REMARK  101  A    between atoms: _229  and  _230
REMARK  102  A    between atoms: _234  and  _236
REMARK  103  A    between atoms: _236  and  _237
REMARK  104  A    between atoms: _236  and  _239
REMARK  105  A    between atoms: _239  and  _240
REMARK  106  A    between atoms: _245  and  _247
REMARK  107  A    between atoms: _247  and  _248
REMARK  108  A    between atoms: _247  and  _250
REMARK  109  A    between atoms: _250  and  _251
REMARK  110  A    between atoms: _254  and  _256
REMARK  111  A    between atoms: _256  and  _257
REMARK  112  A    between atoms: _260  and  _262
REMARK  113  A    between atoms: _262  and  _263
REMARK  114  A    between atoms: _262  and  _265
REMARK  115  A    between atoms: _268  and  _270
REMARK  116  A    between atoms: _270  and  _271
REMARK  117  A    between atoms: _270  and  _273
REMARK  118  A    between atoms: _273  and  _274
REMARK  119  A    between atoms: _279  and  _281
REMARK  120  A    between atoms: _281  and  _282
REMARK  121  A    between atoms: _281  and  _284
REMARK  122  A    between atoms: _284  and  _285
REMARK  123  A    between atoms: _291  and  _293
REMARK  124  A    between atoms: _293  and  _294
REMARK  125  A    between atoms: _293  and  _296
REMARK  126  A    between atoms: _296  and  _297
REMARK  127  A    between atoms: _300  and  _302
REMARK  128  A    between atoms: _302  and  _303
REMARK  129  A    between atoms: _306  and  _308
REMARK  130  A    between atoms: _308  and  _309
REMARK  131  A    between atoms: _308  and  _311
REMARK  132  A    between atoms: _311  and  _312
REMARK  133  A    between atoms: _314  and  _316
REMARK  134  A    between atoms: _316  and  _317
REMARK  135  A    between atoms: _316  and  _319
REMARK                            x       y       z     vdW  Elec       q    Type
REMARK                         _______ _______ _______ _____ _____    ______ ____
ROOT
ATOM      1  C   PHE A   3      25.968   5.240  15.701  0.00  0.00    +0.241 C 
ATOM      2  N   ASP A   4      26.818   6.251  15.782  0.00  0.00    -0.297 N 
ATOM      3  H   ASP A   4      27.727   6.131  16.272  0.00  0.00    +0.150 HD
ATOM      4  O   PHE A   3      24.923   5.311  15.068  0.00  0.00    -0.273 OA
ENDROOT
BRANCH   2   5
ATOM      5  CA  ASP A   4      26.475   7.531  15.182  0.00  0.00    +0.160 C 
BRANCH   5   6
ATOM      6  C   ASP A   4      26.850   7.712  13.727  0.00  0.00    +0.241 C 
ATOM      7  N   ALA A   5      28.027   7.236  13.345  0.00  0.00    -0.297 N 
ATOM      8  H   ALA A   5      28.602   6.695  14.022  0.00  0.00    +0.150 HD
ATOM      9  O   ASP A   4      26.068   8.261  12.961  0.00  0.00    -0.273 OA
BRANCH   7  10
ATOM     10  CA  ALA A   5      28.526   7.454  12.010  0.00  0.00    +0.149 C 
ATOM     11  CB  ALA A   5      28.763   8.945  11.814  0.00  0.00    +0.031 C 
BRANCH  10  12
ATOM     12  C   ALA A   5      29.844   6.742  11.778  0.00  0.00    +0.241 C 
ATOM     13  O   ALA A   5      30.479   6.264  12.709  0.00  0.00    -0.273 OA
ATOM     14  N   SER A   6      30.240   6.667  10.523  0.00  0.00    -0.295 N 
ATOM     15  H   SER A   6      29.611   7.011   9.769  0.00  0.00    +0.150 HD
BRANCH  14  16
ATOM     16  CA  SER A   6      31.545   6.110  10.168  0.00  0.00    +0.178 C 
BRANCH  16  17
ATOM     17  C   SER A   6      32.122   7.283   9.414  0.00  0.00    +0.243 C 
ATOM     18  N   VAL A   7      33.426   7.456   9.474  0.00  0.00    -0.295 N 
ATOM     19  H   VAL A   7      34.033   6.785   9.986  0.00  0.00    +0.150 HD
ATOM     20  O   SER A   6      31.390   8.050   8.764  0.00  0.00    -0.273 OA
BRANCH  18  21
ATOM     21  CA  VAL A   7      33.986   8.608   8.806  0.00  0.00    +0.176 C 
BRANCH  21  22
ATOM     22  C   VAL A   7      35.351   8.317   8.166  0.00  0.00    +0.382 C 
ATOM     23  OXT VAL A   7      36.095   7.410   8.635  0.00  0.00    -0.244 OA
ATOM     24  O   VAL A   7      35.646   8.986   7.152  0.00  0.00    -0.244 OA
ENDBRANCH  21  22
BRANCH  21  25
ATOM     25  CB  VAL A   7      34.008   9.805   9.824  0.00  0.00    +0.029 C 
ATOM     26  CG2 VAL A   7      34.667   9.396  11.117  0.00  0.00    +0.002 C 
ATOM     27  CG1 VAL A   7      34.687  10.991   9.230  0.00  0.00    +0.002 C 
ENDBRANCH  21  25
ENDBRANCH  18  21
ENDBRANCH  16  17
BRANCH  16  28
ATOM     28  CB  SER A   6      31.433   4.888   9.265  0.00  0.00    +0.166 C 
BRANCH  28  29
ATOM     29  OG  SER A   6      30.823   5.214   8.029  0.00  0.00    -0.380 OA
ATOM     30  H   SER A   6      30.765   4.401   7.466  0.00  0.00    +0.211 HD
ENDBRANCH  28  29
ENDBRANCH  16  28
ENDBRANCH  14  16
ENDBRANCH  10  12
ENDBRANCH   7  10
ENDBRANCH   5   6
BRANCH   5  31
ATOM     31  CB  ASP A   4      27.089   8.677  15.993  0.00  0.00    +0.143 C 
BRANCH  31  32
ATOM     32  CG  ASP A   4      26.257   9.968  15.915  0.00  0.00    +0.367 C 
ATOM     33  OD2 ASP A   4      25.033   9.894  16.021  0.00  0.00    -0.246 OA
ATOM     34  OD1 ASP A   4      26.828  11.067  15.763  0.00  0.00    -0.246 OA
ENDBRANCH  31  32
ENDBRANCH   5  31
ENDBRANCH   2   5
BRANCH   1  35
ATOM     35  CA  PHE A   3      26.331   3.941  16.437  0.00  0.00    +0.153 C 
BRANCH  35  38
ATOM     36  C   HIS A   2      25.605   4.333  18.711  0.00  0.00    +0.241 C 
ATOM     37  O   HIS A   2      26.671   4.854  18.989  0.00  0.00    -0.273 OA
ATOM     38  N   PHE A   3      25.357   3.819  17.516  0.00  0.00    -0.297 N 
ATOM     39  H   PHE A   3      24.459   3.323  17.345  0.00  0.00    +0.150 HD
BRANCH  36  40
ATOM     40  CA  HIS A   2      24.517   4.214  19.759  0.00  0.00    +0.155 C 
BRANCH  40  43
ATOM     41  C   VAL A   1      24.328   3.489  22.047  0.00  0.00    +0.238 C 
ATOM     42  O   VAL A   1      23.098   3.511  21.952  0.00  0.00    -0.274 OA
ATOM     43  N   HIS A   2      25.107   3.818  21.025  0.00  0.00    -0.297 N 
ATOM     44  H   HIS A   2      26.141   3.792  21.131  0.00  0.00    +0.150 HD
BRANCH  41  45
ATOM     45  CA  VAL A   1      25.032   3.064  23.370  0.00  0.00    +0.145 C 
BRANCH  45  46
ATOM     46  CB  VAL A   1      24.430   3.846  24.561  0.00  0.00    +0.025 C 
ATOM     47  CG2 VAL A   1      25.007   3.276  25.883  0.00  0.00    +0.002 C 
ATOM     48  CG1 VAL A   1      24.722   5.354  24.437  0.00  0.00    +0.002 C 
ENDBRANCH  45  46
BRANCH  45  49
ATOM     49  N   VAL A   1      26.491   3.198  23.335  0.00  0.00    -0.238 NA
ATOM     50  H   VAL A   1      26.911   4.112  23.071  0.00  0.00    +0.142 HD
ENDBRANCH  45  49
ENDBRANCH  41  45
ENDBRANCH  40  43
BRANCH  40  51
ATOM     51  CB  HIS A   2      23.800   5.561  19.921  0.00  0.00    +0.076 C 
BRANCH  51  52
ATOM     52  CG  HIS A   2      23.352   6.174  18.622  0.00  0.00    +0.082 A 
ATOM     53  ND1 HIS A   2      22.229   5.777  17.926  0.00  0.00    -0.227 NA
ATOM     54  CE1 HIS A   2      22.106   6.561  16.830  0.00  0.00    +0.199 A 
ATOM     55  NE2 HIS A   2      23.082   7.446  16.771  0.00  0.00    -0.221 NA
ATOM     56  CD2 HIS A   2      23.878   7.202  17.910  0.00  0.00    +0.115 A 
ENDBRANCH  51  52
ENDBRANCH  40  51
ENDBRANCH  36  40
ENDBRANCH  35  38
BRANCH  35  57
ATOM     57  CB  PHE A   3      26.248   2.751  15.468  0.00  0.00    +0.055 C 
BRANCH  57  58
ATOM     58  CG  PHE A   3      27.367   2.740  14.451  0.00  0.00    -0.020 A 
ATOM     59  CD2 PHE A   3      28.549   2.073  14.717  0.00  0.00    -0.004 A 
ATOM     60  CE2 PHE A   3      29.627   2.128  13.808  0.00  0.00    -0.000 A 
ATOM     61  CZ  PHE A   3      29.500   2.857  12.629  0.00  0.00    -0.000 A 
ATOM     62  CE1 PHE A   3      28.317   3.518  12.357  0.00  0.00    -0.000 A 
ATOM     63  CD1 PHE A   3      27.252   3.457  13.266  0.00  0.00    -0.004 A 
ENDBRANCH  57  58
ENDBRANCH  35  57
ENDBRANCH   1  35
TORSDOF 24
REMARK  Name = ../refined-set-2016/1n3z/1n3z_pocket.pdb
REMARK  135 active torsions:
REMARK  status: ('A' for Active; 'I' for Inactive)
REMARK    1  A    between atoms: _1  and  _3
REMARK    2  A    between atoms: _3  and  _4
REMARK    3  A    between atoms: _3  and  _6
REMARK    4  A    between atoms: _6  and  _7
REMARK    5  A    between atoms: _7  and  _8
REMARK    6  A    between atoms: _8  and  _9
REMARK    7  A    between atoms: _9  and  _10
REMARK    8  A    between atoms: _14  and  _16
REMARK    9  A    between atoms: _16  and  _17
REMARK   10  A    between atoms: _16  and  _19
REMARK   11  A    between atoms: _19  and  _20
REMARK   12  A    between atoms: _26  and  _28
REMARK   13  A    between atoms: _28  and  _29
REMARK   14  A    between atoms: _28  and  _31
REMARK   15  A    between atoms: _31  and  _32
REMARK   16  A    between atoms: _32  and  _33
REMARK   17  A    between atoms: _33  and  _34
REMARK   18  A    between atoms: _43  and  _45
REMARK   19  A    between atoms: _45  and  _46
REMARK   20  A    between atoms: _45  and  _48
REMARK   21  A    between atoms: _48  and  _49
REMARK   22  A    between atoms: _49  and  _50
REMARK   23  A    between atoms: _55  and  _57
REMARK   24  A    between atoms: _57  and  _58
REMARK   25  A    between atoms: _57  and  _60
REMARK   26  A    between atoms: _60  and  _61
REMARK   27  A    between atoms: _66  and  _68
REMARK   28  A    between atoms: _68  and  _69
REMARK   29  A    between atoms: _68  and  _71
REMARK   30  A    between atoms: _71  and  _72
REMARK   31  A    between atoms: _72  and  _73
REMARK   32  A    between atoms: _75  and  _77
REMARK   33  A    between atoms: _77  and  _78
REMARK   34  A    between atoms: _77  and  _80
REMARK   35  A    between atoms: _80  and  _81
REMARK   36  A    between atoms: _81  and  _82
REMARK   37  A    between atoms: _84  and  _86
REMARK   38  A    between atoms: _86  and  _87
REMARK   39  A    between atoms: _86  and  _89
REMARK   40  A    between atoms: _89  and  _90
REMARK   41  A    between atoms: _90  and  _91
REMARK   42  A    between atoms: _91  and  _92
REMARK   43  A    between atoms: _92  and  _93
REMARK   44  A    between atoms: _97  and  _99
REMARK   45  A    between atoms: _99  and  _100
REMARK   46  A    between atoms: _99  and  _102
REMARK   47  A    between atoms: _102  and  _103
REMARK   48  A    between atoms: _103  and  _104
REMARK   49  A    between atoms: _104  and  _105
REMARK   50  A    between atoms: _105  and  _106
REMARK   51  A    between atoms: _111  and  _112
REMARK   52  A    between atoms: _117  and  _119
REMARK   53  A    between atoms: _119  and  _120
REMARK   54  A    between atoms: _119  and  _122
REMARK   55  A    between atoms: _125  and  _127
REMARK   56  A    between atoms: _127  and  _128
REMARK   57  A    between atoms: _127  and  _130
REMARK   58  A    between atoms: _130  and  _131
REMARK   59  A    between atoms: _136  and  _138
REMARK   60  A    between atoms: _138  and  _139
REMARK   61  A    between atoms: _138  and  _141
REMARK   62  A    between atoms: _141  and  _142
REMARK   63  A    between atoms: _145  and  _147
REMARK   64  A    between atoms: _147  and  _148
REMARK   65  A    between atoms: _147  and  _150
REMARK   66  A    between atoms: _150  and  _151
REMARK   67  A    between atoms: _157  and  _159
REMARK   68  A    between atoms: _159  and  _160
REMARK   69  A    between atoms: _159  and  _162
REMARK   70  A    between atoms: _162  and  _163
REMARK   71  A    between atoms: _163  and  _164
REMARK   72  A    between atoms: _164  and  _165
REMARK   73  A    between atoms: _165  and  _166
REMARK   74  A    between atoms: _170  and  _172
REMARK   75  A    between atoms: _172  and  _173
REMARK   76  A    between atoms: _172  and  _175
REMARK   77  A    between atoms: _175  and  _176
REMARK   78  A    between atoms: _179  and  _181
REMARK   79  A    between atoms: _181  and  _182
REMARK   80  A    between atoms: _181  and  _184
REMARK   81  A    between atoms: _184  and  _185
REMARK   82  A    between atoms: _188  and  _190
REMARK   83  A    between atoms: _190  and  _191
REMARK   84  A    between atoms: _190  and  _193
REMARK   85  A    between atoms: _193  and  _194
REMARK   86  A    between atoms: _197  and  _199
REMARK   87  A    between atoms: _199  and  _200
REMARK   88  A    between atoms: _199  and  _202
REMARK   89  A    between atoms: _204  and  _206
REMARK   90  A    between atoms: _206  and  _207
REMARK   91  A    between atoms: _206  and  _209
REMARK   92  A    between atoms: _209  and  _210
REMARK   93  A    between atoms: _210  and  _211
REMARK   94  A    between atoms: _211  and  _212
REMARK   95  A    between atoms: _221  and  _223
REMARK   96  A    between atoms: _223  and  _224
REMARK   97  A    between atoms: _223  and  _226
REMARK   98  A    between atoms: _226  and  _227
REMARK   99  A    between atoms: _227  and  _228
REMARK  100  A    between atoms: _228  and  _229
REMARK  101  A    between atoms: _229  and  _230
REMARK  102  A    between atoms: _234  and  _236
REMARK  103  A    between atoms: _236  and  _237
REMARK  104  A    between atoms: _236  and  _239
REMARK  105  A    between atoms: _239  and  _240
REMARK  106  A    between atoms: _245  and  _247
REMARK  107  A    between atoms: _247  and  _248
REMARK  108  A    between atoms: _247  and  _250
REMARK  109  A    between atoms: _250  and  _251
REMARK  110  A    between atoms: _254  and  _256
REMARK  111  A    between atoms: _256  and  _257
REMARK  112  A    between atoms: _260  and  _262
REMARK  113  A    between atoms: _262  and  _263
REMARK  114  A    between atoms: _262  and  _265
REMARK  115  A    between atoms: _268  and  _270
REMARK  116  A    between atoms: _270  and  _271
REMARK  117  A    between atoms: _270  and  _273
REMARK  118  A    between atoms: _273  and  _274
REMARK  119  A    between atoms: _279  and  _281
REMARK  120  A    between atoms: _281  and  _282
REMARK  121  A    between atoms: _281  and  _284
REMARK  122  A    between atoms: _284  and  _285
REMARK  123  A    between atoms: _291  and  _293
REMARK  124  A    between atoms: _293  and  _294
REMARK  125  A    between atoms: _293  and  _296
REMARK  126  A    between atoms: _296  and  _297
REMARK  127  A    between atoms: _300  and  _302
REMARK  128  A    between atoms: _302  and  _303
REMARK  129  A    between atoms: _306  and  _308
REMARK  130  A    between atoms: _308  and  _309
REMARK  131  A    between atoms: _308  and  _311
REMARK  132  A    between atoms: _311  and  _312
REMARK  133  A    between atoms: _314  and  _316
REMARK  134  A    between atoms: _316  and  _317
REMARK  135  A    between atoms: _316  and  _319
REMARK                            x       y       z     vdW  Elec       q    Type
REMARK                         _______ _______ _______ _____ _____    ______ ____
ROOT
ATOM      1  O   HOH     1      22.822   2.447  17.275  0.00  0.00    +0.000 OA
ENDROOT
TORSDOF 0
REMARK  Name = ../refined-set-2016/1n3z/1n3z_pocket.pdb
REMARK  135 active torsions:
REMARK  status: ('A' for Active; 'I' for Inactive)
REMARK    1  A    between atoms: _1  and  _3
REMARK    2  A    between atoms: _3  and  _4
REMARK    3  A    between atoms: _3  and  _6
REMARK    4  A    between atoms: _6  and  _7
REMARK    5  A    between atoms: _7  and  _8
REMARK    6  A    between atoms: _8  and  _9
REMARK    7  A    between atoms: _9  and  _10
REMARK    8  A    between atoms: _14  and  _16
REMARK    9  A    between atoms: _16  and  _17
REMARK   10  A    between atoms: _16  and  _19
REMARK   11  A    between atoms: _19  and  _20
REMARK   12  A    between atoms: _26  and  _28
REMARK   13  A    between atoms: _28  and  _29
REMARK   14  A    between atoms: _28  and  _31
REMARK   15  A    between atoms: _31  and  _32
REMARK   16  A    between atoms: _32  and  _33
REMARK   17  A    between atoms: _33  and  _34
REMARK   18  A    between atoms: _43  and  _45
REMARK   19  A    between atoms: _45  and  _46
REMARK   20  A    between atoms: _45  and  _48
REMARK   21  A    between atoms: _48  and  _49
REMARK   22  A    between atoms: _49  and  _50
REMARK   23  A    between atoms: _55  and  _57
REMARK   24  A    between atoms: _57  and  _58
REMARK   25  A    between atoms: _57  and  _60
REMARK   26  A    between atoms: _60  and  _61
REMARK   27  A    between atoms: _66  and  _68
REMARK   28  A    between atoms: _68  and  _69
REMARK   29  A    between atoms: _68  and  _71
REMARK   30  A    between atoms: _71  and  _72
REMARK   31  A    between atoms: _72  and  _73
REMARK   32  A    between atoms: _75  and  _77
REMARK   33  A    between atoms: _77  and  _78
REMARK   34  A    between atoms: _77  and  _80
REMARK   35  A    between atoms: _80  and  _81
REMARK   36  A    between atoms: _81  and  _82
REMARK   37  A    between atoms: _84  and  _86
REMARK   38  A    between atoms: _86  and  _87
REMARK   39  A    between atoms: _86  and  _89
REMARK   40  A    between atoms: _89  and  _90
REMARK   41  A    between atoms: _90  and  _91
REMARK   42  A    between atoms: _91  and  _92
REMARK   43  A    between atoms: _92  and  _93
REMARK   44  A    between atoms: _97  and  _99
REMARK   45  A    between atoms: _99  and  _100
REMARK   46  A    between atoms: _99  and  _102
REMARK   47  A    between atoms: _102  and  _103
REMARK   48  A    between atoms: _103  and  _104
REMARK   49  A    between atoms: _104  and  _105
REMARK   50  A    between atoms: _105  and  _106
REMARK   51  A    between atoms: _111  and  _112
REMARK   52  A    between atoms: _117  and  _119
REMARK   53  A    between atoms: _119  and  _120
REMARK   54  A    between atoms: _119  and  _122
REMARK   55  A    between atoms: _125  and  _127
REMARK   56  A    between atoms: _127  and  _128
REMARK   57  A    between atoms: _127  and  _130
REMARK   58  A    between atoms: _130  and  _131
REMARK   59  A    between atoms: _136  and  _138
REMARK   60  A    between atoms: _138  and  _139
REMARK   61  A    between atoms: _138  and  _141
REMARK   62  A    between atoms: _141  and  _142
REMARK   63  A    between atoms: _145  and  _147
REMARK   64  A    between atoms: _147  and  _148
REMARK   65  A    between atoms: _147  and  _150
REMARK   66  A    between atoms: _150  and  _151
REMARK   67  A    between atoms: _157  and  _159
REMARK   68  A    between atoms: _159  and  _160
REMARK   69  A    between atoms: _159  and  _162
REMARK   70  A    between atoms: _162  and  _163
REMARK   71  A    between atoms: _163  and  _164
REMARK   72  A    between atoms: _164  and  _165
REMARK   73  A    between atoms: _165  and  _166
REMARK   74  A    between atoms: _170  and  _172
REMARK   75  A    between atoms: _172  and  _173
REMARK   76  A    between atoms: _172  and  _175
REMARK   77  A    between atoms: _175  and  _176
REMARK   78  A    between atoms: _179  and  _181
REMARK   79  A    between atoms: _181  and  _182
REMARK   80  A    between atoms: _181  and  _184
REMARK   81  A    between atoms: _184  and  _185
REMARK   82  A    between atoms: _188  and  _190
REMARK   83  A    between atoms: _190  and  _191
REMARK   84  A    between atoms: _190  and  _193
REMARK   85  A    between atoms: _193  and  _194
REMARK   86  A    between atoms: _197  and  _199
REMARK   87  A    between atoms: _199  and  _200
REMARK   88  A    between atoms: _199  and  _202
REMARK   89  A    between atoms: _204  and  _206
REMARK   90  A    between atoms: _206  and  _207
REMARK   91  A    between atoms: _206  and  _209
REMARK   92  A    between atoms: _209  and  _210
REMARK   93  A    between atoms: _210  and  _211
REMARK   94  A    between atoms: _211  and  _212
REMARK   95  A    between atoms: _221  and  _223
REMARK   96  A    between atoms: _223  and  _224
REMARK   97  A    between atoms: _223  and  _226
REMARK   98  A    between atoms: _226  and  _227
REMARK   99  A    between atoms: _227  and  _228
REMARK  100  A    between atoms: _228  and  _229
REMARK  101  A    between atoms: _229  and  _230
REMARK  102  A    between atoms: _234  and  _236
REMARK  103  A    between atoms: _236  and  _237
REMARK  104  A    between atoms: _236  and  _239
REMARK  105  A    between atoms: _239  and  _240
REMARK  106  A    between atoms: _245  and  _247
REMARK  107  A    between atoms: _247  and  _248
REMARK  108  A    between atoms: _247  and  _250
REMARK  109  A    between atoms: _250  and  _251
REMARK  110  A    between atoms: _254  and  _256
REMARK  111  A    between atoms: _256  and  _257
REMARK  112  A    between atoms: _260  and  _262
REMARK  113  A    between atoms: _262  and  _263
REMARK  114  A    between atoms: _262  and  _265
REMARK  115  A    between atoms: _268  and  _270
REMARK  116  A    between atoms: _270  and  _271
REMARK  117  A    between atoms: _270  and  _273
REMARK  118  A    between atoms: _273  and  _274
REMARK  119  A    between atoms: _279  and  _281
REMARK  120  A    between atoms: _281  and  _282
REMARK  121  A    between atoms: _281  and  _284
REMARK  122  A    between atoms: _284  and  _285
REMARK  123  A    between atoms: _291  and  _293
REMARK  124  A    between atoms: _293  and  _294
REMARK  125  A    between atoms: _293  and  _296
REMARK  126  A    between atoms: _296  and  _297
REMARK  127  A    between atoms: _300  and  _302
REMARK  128  A    between atoms: _302  and  _303
REMARK  129  A    between atoms: _306  and  _308
REMARK  130  A    between atoms: _308  and  _309
REMARK  131  A    between atoms: _308  and  _311
REMARK  132  A    between atoms: _311  and  _312
REMARK  133  A    between atoms: _314  and  _316
REMARK  134  A    between atoms: _316  and  _317
REMARK  135  A    between atoms: _316  and  _319
REMARK                            x       y       z     vdW  Elec       q    Type
REMARK                         _______ _______ _______ _____ _____    ______ ____
ROOT
ATOM      1  O   HOH     1      23.363  11.382  17.341  0.00  0.00    +0.000 OA
ENDROOT
TORSDOF 0
REMARK  Name = ../refined-set-2016/1n3z/1n3z_pocket.pdb
REMARK  135 active torsions:
REMARK  status: ('A' for Active; 'I' for Inactive)
REMARK    1  A    between atoms: _1  and  _3
REMARK    2  A    between atoms: _3  and  _4
REMARK    3  A    between atoms: _3  and  _6
REMARK    4  A    between atoms: _6  and  _7
REMARK    5  A    between atoms: _7  and  _8
REMARK    6  A    between atoms: _8  and  _9
REMARK    7  A    between atoms: _9  and  _10
REMARK    8  A    between atoms: _14  and  _16
REMARK    9  A    between atoms: _16  and  _17
REMARK   10  A    between atoms: _16  and  _19
REMARK   11  A    between atoms: _19  and  _20
REMARK   12  A    between atoms: _26  and  _28
REMARK   13  A    between atoms: _28  and  _29
REMARK   14  A    between atoms: _28  and  _31
REMARK   15  A    between atoms: _31  and  _32
REMARK   16  A    between atoms: _32  and  _33
REMARK   17  A    between atoms: _33  and  _34
REMARK   18  A    between atoms: _43  and  _45
REMARK   19  A    between atoms: _45  and  _46
REMARK   20  A    between atoms: _45  and  _48
REMARK   21  A    between atoms: _48  and  _49
REMARK   22  A    between atoms: _49  and  _50
REMARK   23  A    between atoms: _55  and  _57
REMARK   24  A    between atoms: _57  and  _58
REMARK   25  A    between atoms: _57  and  _60
REMARK   26  A    between atoms: _60  and  _61
REMARK   27  A    between atoms: _66  and  _68
REMARK   28  A    between atoms: _68  and  _69
REMARK   29  A    between atoms: _68  and  _71
REMARK   30  A    between atoms: _71  and  _72
REMARK   31  A    between atoms: _72  and  _73
REMARK   32  A    between atoms: _75  and  _77
REMARK   33  A    between atoms: _77  and  _78
REMARK   34  A    between atoms: _77  and  _80
REMARK   35  A    between atoms: _80  and  _81
REMARK   36  A    between atoms: _81  and  _82
REMARK   37  A    between atoms: _84  and  _86
REMARK   38  A    between atoms: _86  and  _87
REMARK   39  A    between atoms: _86  and  _89
REMARK   40  A    between atoms: _89  and  _90
REMARK   41  A    between atoms: _90  and  _91
REMARK   42  A    between atoms: _91  and  _92
REMARK   43  A    between atoms: _92  and  _93
REMARK   44  A    between atoms: _97  and  _99
REMARK   45  A    between atoms: _99  and  _100
REMARK   46  A    between atoms: _99  and  _102
REMARK   47  A    between atoms: _102  and  _103
REMARK   48  A    between atoms: _103  and  _104
REMARK   49  A    between atoms: _104  and  _105
REMARK   50  A    between atoms: _105  and  _106
REMARK   51  A    between atoms: _111  and  _112
REMARK   52  A    between atoms: _117  and  _119
REMARK   53  A    between atoms: _119  and  _120
REMARK   54  A    between atoms: _119  and  _122
REMARK   55  A    between atoms: _125  and  _127
REMARK   56  A    between atoms: _127  and  _128
REMARK   57  A    between atoms: _127  and  _130
REMARK   58  A    between atoms: _130  and  _131
REMARK   59  A    between atoms: _136  and  _138
REMARK   60  A    between atoms: _138  and  _139
REMARK   61  A    between atoms: _138  and  _141
REMARK   62  A    between atoms: _141  and  _142
REMARK   63  A    between atoms: _145  and  _147
REMARK   64  A    between atoms: _147  and  _148
REMARK   65  A    between atoms: _147  and  _150
REMARK   66  A    between atoms: _150  and  _151
REMARK   67  A    between atoms: _157  and  _159
REMARK   68  A    between atoms: _159  and  _160
REMARK   69  A    between atoms: _159  and  _162
REMARK   70  A    between atoms: _162  and  _163
REMARK   71  A    between atoms: _163  and  _164
REMARK   72  A    between atoms: _164  and  _165
REMARK   73  A    between atoms: _165  and  _166
REMARK   74  A    between atoms: _170  and  _172
REMARK   75  A    between atoms: _172  and  _173
REMARK   76  A    between atoms: _172  and  _175
REMARK   77  A    between atoms: _175  and  _176
REMARK   78  A    between atoms: _179  and  _181
REMARK   79  A    between atoms: _181  and  _182
REMARK   80  A    between atoms: _181  and  _184
REMARK   81  A    between atoms: _184  and  _185
REMARK   82  A    between atoms: _188  and  _190
REMARK   83  A    between atoms: _190  and  _191
REMARK   84  A    between atoms: _190  and  _193
REMARK   85  A    between atoms: _193  and  _194
REMARK   86  A    between atoms: _197  and  _199
REMARK   87  A    between atoms: _199  and  _200
REMARK   88  A    between atoms: _199  and  _202
REMARK   89  A    between atoms: _204  and  _206
REMARK   90  A    between atoms: _206  and  _207
REMARK   91  A    between atoms: _206  and  _209
REMARK   92  A    between atoms: _209  and  _210
REMARK   93  A    between atoms: _210  and  _211
REMARK   94  A    between atoms: _211  and  _212
REMARK   95  A    between atoms: _221  and  _223
REMARK   96  A    between atoms: _223  and  _224
REMARK   97  A    between atoms: _223  and  _226
REMARK   98  A    between atoms: _226  and  _227
REMARK   99  A    between atoms: _227  and  _228
REMARK  100  A    between atoms: _228  and  _229
REMARK  101  A    between atoms: _229  and  _230
REMARK  102  A    between atoms: _234  and  _236
REMARK  103  A    between atoms: _236  and  _237
REMARK  104  A    between atoms: _236  and  _239
REMARK  105  A    between atoms: _239  and  _240
REMARK  106  A    between atoms: _245  and  _247
REMARK  107  A    between atoms: _247  and  _248
REMARK  108  A    between atoms: _247  and  _250
REMARK  109  A    between atoms: _250  and  _251
REMARK  110  A    between atoms: _254  and  _256
REMARK  111  A    between atoms: _256  and  _257
REMARK  112  A    between atoms: _260  and  _262
REMARK  113  A    between atoms: _262  and  _263
REMARK  114  A    between atoms: _262  and  _265
REMARK  115  A    between atoms: _268  and  _270
REMARK  116  A    between atoms: _270  and  _271
REMARK  117  A    between atoms: _270  and  _273
REMARK  118  A    between atoms: _273  and  _274
REMARK  119  A    between atoms: _279  and  _281
REMARK  120  A    between atoms: _281  and  _282
REMARK  121  A    between atoms: _281  and  _284
REMARK  122  A    between atoms: _284  and  _285
REMARK  123  A    between atoms: _291  and  _293
REMARK  124  A    between atoms: _293  and  _294
REMARK  125  A    between atoms: _293  and  _296
REMARK  126  A    between atoms: _296  and  _297
REMARK  127  A    between atoms: _300  and  _302
REMARK  128  A    between atoms: _302  and  _303
REMARK  129  A    between atoms: _306  and  _308
REMARK  130  A    between atoms: _308  and  _309
REMARK  131  A    between atoms: _308  and  _311
REMARK  132  A    between atoms: _311  and  _312
REMARK  133  A    between atoms: _314  and  _316
REMARK  134  A    between atoms: _316  and  _317
REMARK  135  A    between atoms: _316  and  _319
REMARK                            x       y       z     vdW  Elec       q    Type
REMARK                         _______ _______ _______ _____ _____    ______ ____
ROOT
ATOM      1  O   HOH     1      22.364   0.645  19.187  0.00  0.00    +0.000 OA
ENDROOT
TORSDOF 0
REMARK  Name = ../refined-set-2016/1n3z/1n3z_pocket.pdb
REMARK  135 active torsions:
REMARK  status: ('A' for Active; 'I' for Inactive)
REMARK    1  A    between atoms: _1  and  _3
REMARK    2  A    between atoms: _3  and  _4
REMARK    3  A    between atoms: _3  and  _6
REMARK    4  A    between atoms: _6  and  _7
REMARK    5  A    between atoms: _7  and  _8
REMARK    6  A    between atoms: _8  and  _9
REMARK    7  A    between atoms: _9  and  _10
REMARK    8  A    between atoms: _14  and  _16
REMARK    9  A    between atoms: _16  and  _17
REMARK   10  A    between atoms: _16  and  _19
REMARK   11  A    between atoms: _19  and  _20
REMARK   12  A    between atoms: _26  and  _28
REMARK   13  A    between atoms: _28  and  _29
REMARK   14  A    between atoms: _28  and  _31
REMARK   15  A    between atoms: _31  and  _32
REMARK   16  A    between atoms: _32  and  _33
REMARK   17  A    between atoms: _33  and  _34
REMARK   18  A    between atoms: _43  and  _45
REMARK   19  A    between atoms: _45  and  _46
REMARK   20  A    between atoms: _45  and  _48
REMARK   21  A    between atoms: _48  and  _49
REMARK   22  A    between atoms: _49  and  _50
REMARK   23  A    between atoms: _55  and  _57
REMARK   24  A    between atoms: _57  and  _58
REMARK   25  A    between atoms: _57  and  _60
REMARK   26  A    between atoms: _60  and  _61
REMARK   27  A    between atoms: _66  and  _68
REMARK   28  A    between atoms: _68  and  _69
REMARK   29  A    between atoms: _68  and  _71
REMARK   30  A    between atoms: _71  and  _72
REMARK   31  A    between atoms: _72  and  _73
REMARK   32  A    between atoms: _75  and  _77
REMARK   33  A    between atoms: _77  and  _78
REMARK   34  A    between atoms: _77  and  _80
REMARK   35  A    between atoms: _80  and  _81
REMARK   36  A    between atoms: _81  and  _82
REMARK   37  A    between atoms: _84  and  _86
REMARK   38  A    between atoms: _86  and  _87
REMARK   39  A    between atoms: _86  and  _89
REMARK   40  A    between atoms: _89  and  _90
REMARK   41  A    between atoms: _90  and  _91
REMARK   42  A    between atoms: _91  and  _92
REMARK   43  A    between atoms: _92  and  _93
REMARK   44  A    between atoms: _97  and  _99
REMARK   45  A    between atoms: _99  and  _100
REMARK   46  A    between atoms: _99  and  _102
REMARK   47  A    between atoms: _102  and  _103
REMARK   48  A    between atoms: _103  and  _104
REMARK   49  A    between atoms: _104  and  _105
REMARK   50  A    between atoms: _105  and  _106
REMARK   51  A    between atoms: _111  and  _112
REMARK   52  A    between atoms: _117  and  _119
REMARK   53  A    between atoms: _119  and  _120
REMARK   54  A    between atoms: _119  and  _122
REMARK   55  A    between atoms: _125  and  _127
REMARK   56  A    between atoms: _127  and  _128
REMARK   57  A    between atoms: _127  and  _130
REMARK   58  A    between atoms: _130  and  _131
REMARK   59  A    between atoms: _136  and  _138
REMARK   60  A    between atoms: _138  and  _139
REMARK   61  A    between atoms: _138  and  _141
REMARK   62  A    between atoms: _141  and  _142
REMARK   63  A    between atoms: _145  and  _147
REMARK   64  A    between atoms: _147  and  _148
REMARK   65  A    between atoms: _147  and  _150
REMARK   66  A    between atoms: _150  and  _151
REMARK   67  A    between atoms: _157  and  _159
REMARK   68  A    between atoms: _159  and  _160
REMARK   69  A    between atoms: _159  and  _162
REMARK   70  A    between atoms: _162  and  _163
REMARK   71  A    between atoms: _163  and  _164
REMARK   72  A    between atoms: _164  and  _165
REMARK   73  A    between atoms: _165  and  _166
REMARK   74  A    between atoms: _170  and  _172
REMARK   75  A    between atoms: _172  and  _173
REMARK   76  A    between atoms: _172  and  _175
REMARK   77  A    between atoms: _175  and  _176
REMARK   78  A    between atoms: _179  and  _181
REMARK   79  A    between atoms: _181  and  _182
REMARK   80  A    between atoms: _181  and  _184
REMARK   81  A    between atoms: _184  and  _185
REMARK   82  A    between atoms: _188  and  _190
REMARK   83  A    between atoms: _190  and  _191
REMARK   84  A    between atoms: _190  and  _193
REMARK   85  A    between atoms: _193  and  _194
REMARK   86  A    between atoms: _197  and  _199
REMARK   87  A    between atoms: _199  and  _200
REMARK   88  A    between atoms: _199  and  _202
REMARK   89  A    between atoms: _204  and  _206
REMARK   90  A    between atoms: _206  and  _207
REMARK   91  A    between atoms: _206  and  _209
REMARK   92  A    between atoms: _209  and  _210
REMARK   93  A    between atoms: _210  and  _211
REMARK   94  A    between atoms: _211  and  _212
REMARK   95  A    between atoms: _221  and  _223
REMARK   96  A    between atoms: _223  and  _224
REMARK   97  A    between atoms: _223  and  _226
REMARK   98  A    between atoms: _226  and  _227
REMARK   99  A    between atoms: _227  and  _228
REMARK  100  A    between atoms: _228  and  _229
REMARK  101  A    between atoms: _229  and  _230
REMARK  102  A    between atoms: _234  and  _236
REMARK  103  A    between atoms: _236  and  _237
REMARK  104  A    between atoms: _236  and  _239
REMARK  105  A    between atoms: _239  and  _240
REMARK  106  A    between atoms: _245  and  _247
REMARK  107  A    between atoms: _247  and  _248
REMARK  108  A    between atoms: _247  and  _250
REMARK  109  A    between atoms: _250  and  _251
REMARK  110  A    between atoms: _254  and  _256
REMARK  111  A    between atoms: _256  and  _257
REMARK  112  A    between atoms: _260  and  _262
REMARK  113  A    between atoms: _262  and  _263
REMARK  114  A    between atoms: _262  and  _265
REMARK  115  A    between atoms: _268  and  _270
REMARK  116  A    between atoms: _270  and  _271
REMARK  117  A    between atoms: _270  and  _273
REMARK  118  A    between atoms: _273  and  _274
REMARK  119  A    between atoms: _279  and  _281
REMARK  120  A    between atoms: _281  and  _282
REMARK  121  A    between atoms: _281  and  _284
REMARK  122  A    between atoms: _284  and  _285
REMARK  123  A    between atoms: _291  and  _293
REMARK  124  A    between atoms: _293  and  _294
REMARK  125  A    between atoms: _293  and  _296
REMARK  126  A    between atoms: _296  and  _297
REMARK  127  A    between atoms: _300  and  _302
REMARK  128  A    between atoms: _302  and  _303
REMARK  129  A    between atoms: _306  and  _308
REMARK  130  A    between atoms: _308  and  _309
REMARK  131  A    between atoms: _308  and  _311
REMARK  132  A    between atoms: _311  and  _312
REMARK  133  A    between atoms: _314  and  _316
REMARK  134  A    between atoms: _316  and  _317
REMARK  135  A    between atoms: _316  and  _319
REMARK                            x       y       z     vdW  Elec       q    Type
REMARK                         _______ _______ _______ _____ _____    ______ ____
ROOT
ATOM      1  O   HOH     1      23.102   9.150  14.183  0.00  0.00    +0.000 OA
ENDROOT
TORSDOF 0
REMARK  Name = ../refined-set-2016/1n3z/1n3z_pocket.pdb
REMARK  135 active torsions:
REMARK  status: ('A' for Active; 'I' for Inactive)
REMARK    1  A    between atoms: _1  and  _3
REMARK    2  A    between atoms: _3  and  _4
REMARK    3  A    between atoms: _3  and  _6
REMARK    4  A    between atoms: _6  and  _7
REMARK    5  A    between atoms: _7  and  _8
REMARK    6  A    between atoms: _8  and  _9
REMARK    7  A    between atoms: _9  and  _10
REMARK    8  A    between atoms: _14  and  _16
REMARK    9  A    between atoms: _16  and  _17
REMARK   10  A    between atoms: _16  and  _19
REMARK   11  A    between atoms: _19  and  _20
REMARK   12  A    between atoms: _26  and  _28
REMARK   13  A    between atoms: _28  and  _29
REMARK   14  A    between atoms: _28  and  _31
REMARK   15  A    between atoms: _31  and  _32
REMARK   16  A    between atoms: _32  and  _33
REMARK   17  A    between atoms: _33  and  _34
REMARK   18  A    between atoms: _43  and  _45
REMARK   19  A    between atoms: _45  and  _46
REMARK   20  A    between atoms: _45  and  _48
REMARK   21  A    between atoms: _48  and  _49
REMARK   22  A    between atoms: _49  and  _50
REMARK   23  A    between atoms: _55  and  _57
REMARK   24  A    between atoms: _57  and  _58
REMARK   25  A    between atoms: _57  and  _60
REMARK   26  A    between atoms: _60  and  _61
REMARK   27  A    between atoms: _66  and  _68
REMARK   28  A    between atoms: _68  and  _69
REMARK   29  A    between atoms: _68  and  _71
REMARK   30  A    between atoms: _71  and  _72
REMARK   31  A    between atoms: _72  and  _73
REMARK   32  A    between atoms: _75  and  _77
REMARK   33  A    between atoms: _77  and  _78
REMARK   34  A    between atoms: _77  and  _80
REMARK   35  A    between atoms: _80  and  _81
REMARK   36  A    between atoms: _81  and  _82
REMARK   37  A    between atoms: _84  and  _86
REMARK   38  A    between atoms: _86  and  _87
REMARK   39  A    between atoms: _86  and  _89
REMARK   40  A    between atoms: _89  and  _90
REMARK   41  A    between atoms: _90  and  _91
REMARK   42  A    between atoms: _91  and  _92
REMARK   43  A    between atoms: _92  and  _93
REMARK   44  A    between atoms: _97  and  _99
REMARK   45  A    between atoms: _99  and  _100
REMARK   46  A    between atoms: _99  and  _102
REMARK   47  A    between atoms: _102  and  _103
REMARK   48  A    between atoms: _103  and  _104
REMARK   49  A    between atoms: _104  and  _105
REMARK   50  A    between atoms: _105  and  _106
REMARK   51  A    between atoms: _111  and  _112
REMARK   52  A    between atoms: _117  and  _119
REMARK   53  A    between atoms: _119  and  _120
REMARK   54  A    between atoms: _119  and  _122
REMARK   55  A    between atoms: _125  and  _127
REMARK   56  A    between atoms: _127  and  _128
REMARK   57  A    between atoms: _127  and  _130
REMARK   58  A    between atoms: _130  and  _131
REMARK   59  A    between atoms: _136  and  _138
REMARK   60  A    between atoms: _138  and  _139
REMARK   61  A    between atoms: _138  and  _141
REMARK   62  A    between atoms: _141  and  _142
REMARK   63  A    between atoms: _145  and  _147
REMARK   64  A    between atoms: _147  and  _148
REMARK   65  A    between atoms: _147  and  _150
REMARK   66  A    between atoms: _150  and  _151
REMARK   67  A    between atoms: _157  and  _159
REMARK   68  A    between atoms: _159  and  _160
REMARK   69  A    between atoms: _159  and  _162
REMARK   70  A    between atoms: _162  and  _163
REMARK   71  A    between atoms: _163  and  _164
REMARK   72  A    between atoms: _164  and  _165
REMARK   73  A    between atoms: _165  and  _166
REMARK   74  A    between atoms: _170  and  _172
REMARK   75  A    between atoms: _172  and  _173
REMARK   76  A    between atoms: _172  and  _175
REMARK   77  A    between atoms: _175  and  _176
REMARK   78  A    between atoms: _179  and  _181
REMARK   79  A    between atoms: _181  and  _182
REMARK   80  A    between atoms: _181  and  _184
REMARK   81  A    between atoms: _184  and  _185
REMARK   82  A    between atoms: _188  and  _190
REMARK   83  A    between atoms: _190  and  _191
REMARK   84  A    between atoms: _190  and  _193
REMARK   85  A    between atoms: _193  and  _194
REMARK   86  A    between atoms: _197  and  _199
REMARK   87  A    between atoms: _199  and  _200
REMARK   88  A    between atoms: _199  and  _202
REMARK   89  A    between atoms: _204  and  _206
REMARK   90  A    between atoms: _206  and  _207
REMARK   91  A    between atoms: _206  and  _209
REMARK   92  A    between atoms: _209  and  _210
REMARK   93  A    between atoms: _210  and  _211
REMARK   94  A    between atoms: _211  and  _212
REMARK   95  A    between atoms: _221  and  _223
REMARK   96  A    between atoms: _223  and  _224
REMARK   97  A    between atoms: _223  and  _226
REMARK   98  A    between atoms: _226  and  _227
REMARK   99  A    between atoms: _227  and  _228
REMARK  100  A    between atoms: _228  and  _229
REMARK  101  A    between atoms: _229  and  _230
REMARK  102  A    between atoms: _234  and  _236
REMARK  103  A    between atoms: _236  and  _237
REMARK  104  A    between atoms: _236  and  _239
REMARK  105  A    between atoms: _239  and  _240
REMARK  106  A    between atoms: _245  and  _247
REMARK  107  A    between atoms: _247  and  _248
REMARK  108  A    between atoms: _247  and  _250
REMARK  109  A    between atoms: _250  and  _251
REMARK  110  A    between atoms: _254  and  _256
REMARK  111  A    between atoms: _256  and  _257
REMARK  112  A    between atoms: _260  and  _262
REMARK  113  A    between atoms: _262  and  _263
REMARK  114  A    between atoms: _262  and  _265
REMARK  115  A    between atoms: _268  and  _270
REMARK  116  A    between atoms: _270  and  _271
REMARK  117  A    between atoms: _270  and  _273
REMARK  118  A    between atoms: _273  and  _274
REMARK  119  A    between atoms: _279  and  _281
REMARK  120  A    between atoms: _281  and  _282
REMARK  121  A    between atoms: _281  and  _284
REMARK  122  A    between atoms: _284  and  _285
REMARK  123  A    between atoms: _291  and  _293
REMARK  124  A    between atoms: _293  and  _294
REMARK  125  A    between atoms: _293  and  _296
REMARK  126  A    between atoms: _296  and  _297
REMARK  127  A    between atoms: _300  and  _302
REMARK  128  A    between atoms: _302  and  _303
REMARK  129  A    between atoms: _306  and  _308
REMARK  130  A    between atoms: _308  and  _309
REMARK  131  A    between atoms: _308  and  _311
REMARK  132  A    between atoms: _311  and  _312
REMARK  133  A    between atoms: _314  and  _316
REMARK  134  A    between atoms: _316  and  _317
REMARK  135  A    between atoms: _316  and  _319
REMARK                            x       y       z     vdW  Elec       q    Type
REMARK                         _______ _______ _______ _____ _____    ______ ____
ROOT
ATOM      1  O   HOH     1      17.042  -3.409  16.391  0.00  0.00    +0.000 OA
ENDROOT
TORSDOF 0
REMARK  Name = ../refined-set-2016/1n3z/1n3z_pocket.pdb
REMARK  135 active torsions:
REMARK  status: ('A' for Active; 'I' for Inactive)
REMARK    1  A    between atoms: _1  and  _3
REMARK    2  A    between atoms: _3  and  _4
REMARK    3  A    between atoms: _3  and  _6
REMARK    4  A    between atoms: _6  and  _7
REMARK    5  A    between atoms: _7  and  _8
REMARK    6  A    between atoms: _8  and  _9
REMARK    7  A    between atoms: _9  and  _10
REMARK    8  A    between atoms: _14  and  _16
REMARK    9  A    between atoms: _16  and  _17
REMARK   10  A    between atoms: _16  and  _19
REMARK   11  A    between atoms: _19  and  _20
REMARK   12  A    between atoms: _26  and  _28
REMARK   13  A    between atoms: _28  and  _29
REMARK   14  A    between atoms: _28  and  _31
REMARK   15  A    between atoms: _31  and  _32
REMARK   16  A    between atoms: _32  and  _33
REMARK   17  A    between atoms: _33  and  _34
REMARK   18  A    between atoms: _43  and  _45
REMARK   19  A    between atoms: _45  and  _46
REMARK   20  A    between atoms: _45  and  _48
REMARK   21  A    between atoms: _48  and  _49
REMARK   22  A    between atoms: _49  and  _50
REMARK   23  A    between atoms: _55  and  _57
REMARK   24  A    between atoms: _57  and  _58
REMARK   25  A    between atoms: _57  and  _60
REMARK   26  A    between atoms: _60  and  _61
REMARK   27  A    between atoms: _66  and  _68
REMARK   28  A    between atoms: _68  and  _69
REMARK   29  A    between atoms: _68  and  _71
REMARK   30  A    between atoms: _71  and  _72
REMARK   31  A    between atoms: _72  and  _73
REMARK   32  A    between atoms: _75  and  _77
REMARK   33  A    between atoms: _77  and  _78
REMARK   34  A    between atoms: _77  and  _80
REMARK   35  A    between atoms: _80  and  _81
REMARK   36  A    between atoms: _81  and  _82
REMARK   37  A    between atoms: _84  and  _86
REMARK   38  A    between atoms: _86  and  _87
REMARK   39  A    between atoms: _86  and  _89
REMARK   40  A    between atoms: _89  and  _90
REMARK   41  A    between atoms: _90  and  _91
REMARK   42  A    between atoms: _91  and  _92
REMARK   43  A    between atoms: _92  and  _93
REMARK   44  A    between atoms: _97  and  _99
REMARK   45  A    between atoms: _99  and  _100
REMARK   46  A    between atoms: _99  and  _102
REMARK   47  A    between atoms: _102  and  _103
REMARK   48  A    between atoms: _103  and  _104
REMARK   49  A    between atoms: _104  and  _105
REMARK   50  A    between atoms: _105  and  _106
REMARK   51  A    between atoms: _111  and  _112
REMARK   52  A    between atoms: _117  and  _119
REMARK   53  A    between atoms: _119  and  _120
REMARK   54  A    between atoms: _119  and  _122
REMARK   55  A    between atoms: _125  and  _127
REMARK   56  A    between atoms: _127  and  _128
REMARK   57  A    between atoms: _127  and  _130
REMARK   58  A    between atoms: _130  and  _131
REMARK   59  A    between atoms: _136  and  _138
REMARK   60  A    between atoms: _138  and  _139
REMARK   61  A    between atoms: _138  and  _141
REMARK   62  A    between atoms: _141  and  _142
REMARK   63  A    between atoms: _145  and  _147
REMARK   64  A    between atoms: _147  and  _148
REMARK   65  A    between atoms: _147  and  _150
REMARK   66  A    between atoms: _150  and  _151
REMARK   67  A    between atoms: _157  and  _159
REMARK   68  A    between atoms: _159  and  _160
REMARK   69  A    between atoms: _159  and  _162
REMARK   70  A    between atoms: _162  and  _163
REMARK   71  A    between atoms: _163  and  _164
REMARK   72  A    between atoms: _164  and  _165
REMARK   73  A    between atoms: _165  and  _166
REMARK   74  A    between atoms: _170  and  _172
REMARK   75  A    between atoms: _172  and  _173
REMARK   76  A    between atoms: _172  and  _175
REMARK   77  A    between atoms: _175  and  _176
REMARK   78  A    between atoms: _179  and  _181
REMARK   79  A    between atoms: _181  and  _182
REMARK   80  A    between atoms: _181  and  _184
REMARK   81  A    between atoms: _184  and  _185
REMARK   82  A    between atoms: _188  and  _190
REMARK   83  A    between atoms: _190  and  _191
REMARK   84  A    between atoms: _190  and  _193
REMARK   85  A    between atoms: _193  and  _194
REMARK   86  A    between atoms: _197  and  _199
REMARK   87  A    between atoms: _199  and  _200
REMARK   88  A    between atoms: _199  and  _202
REMARK   89  A    between atoms: _204  and  _206
REMARK   90  A    between atoms: _206  and  _207
REMARK   91  A    between atoms: _206  and  _209
REMARK   92  A    between atoms: _209  and  _210
REMARK   93  A    between atoms: _210  and  _211
REMARK   94  A    between atoms: _211  and  _212
REMARK   95  A    between atoms: _221  and  _223
REMARK   96  A    between atoms: _223  and  _224
REMARK   97  A    between atoms: _223  and  _226
REMARK   98  A    between atoms: _226  and  _227
REMARK   99  A    between atoms: _227  and  _228
REMARK  100  A    between atoms: _228  and  _229
REMARK  101  A    between atoms: _229  and  _230
REMARK  102  A    between atoms: _234  and  _236
REMARK  103  A    between atoms: _236  and  _237
REMARK  104  A    between atoms: _236  and  _239
REMARK  105  A    between atoms: _239  and  _240
REMARK  106  A    between atoms: _245  and  _247
REMARK  107  A    between atoms: _247  and  _248
REMARK  108  A    between atoms: _247  and  _250
REMARK  109  A    between atoms: _250  and  _251
REMARK  110  A    between atoms: _254  and  _256
REMARK  111  A    between atoms: _256  and  _257
REMARK  112  A    between atoms: _260  and  _262
REMARK  113  A    between atoms: _262  and  _263
REMARK  114  A    between atoms: _262  and  _265
REMARK  115  A    between atoms: _268  and  _270
REMARK  116  A    between atoms: _270  and  _271
REMARK  117  A    between atoms: _270  and  _273
REMARK  118  A    between atoms: _273  and  _274
REMARK  119  A    between atoms: _279  and  _281
REMARK  120  A    between atoms: _281  and  _282
REMARK  121  A    between atoms: _281  and  _284
REMARK  122  A    between atoms: _284  and  _285
REMARK  123  A    between atoms: _291  and  _293
REMARK  124  A    between atoms: _293  and  _294
REMARK  125  A    between atoms: _293  and  _296
REMARK  126  A    between atoms: _296  and  _297
REMARK  127  A    between atoms: _300  and  _302
REMARK  128  A    between atoms: _302  and  _303
REMARK  129  A    between atoms: _306  and  _308
REMARK  130  A    between atoms: _308  and  _309
REMARK  131  A    between atoms: _308  and  _311
REMARK  132  A    between atoms: _311  and  _312
REMARK  133  A    between atoms: _314  and  _316
REMARK  134  A    between atoms: _316  and  _317
REMARK  135  A    between atoms: _316  and  _319
REMARK                            x       y       z     vdW  Elec       q    Type
REMARK                         _______ _______ _______ _____ _____    ______ ____
ROOT
ATOM      1  O   HOH     1      18.999   3.175   9.910  0.00  0.00    +0.000 OA
ENDROOT
TORSDOF 0
REMARK  Name = ../refined-set-2016/1n3z/1n3z_pocket.pdb
REMARK  135 active torsions:
REMARK  status: ('A' for Active; 'I' for Inactive)
REMARK    1  A    between atoms: _1  and  _3
REMARK    2  A    between atoms: _3  and  _4
REMARK    3  A    between atoms: _3  and  _6
REMARK    4  A    between atoms: _6  and  _7
REMARK    5  A    between atoms: _7  and  _8
REMARK    6  A    between atoms: _8  and  _9
REMARK    7  A    between atoms: _9  and  _10
REMARK    8  A    between atoms: _14  and  _16
REMARK    9  A    between atoms: _16  and  _17
REMARK   10  A    between atoms: _16  and  _19
REMARK   11  A    between atoms: _19  and  _20
REMARK   12  A    between atoms: _26  and  _28
REMARK   13  A    between atoms: _28  and  _29
REMARK   14  A    between atoms: _28  and  _31
REMARK   15  A    between atoms: _31  and  _32
REMARK   16  A    between atoms: _32  and  _33
REMARK   17  A    between atoms: _33  and  _34
REMARK   18  A    between atoms: _43  and  _45
REMARK   19  A    between atoms: _45  and  _46
REMARK   20  A    between atoms: _45  and  _48
REMARK   21  A    between atoms: _48  and  _49
REMARK   22  A    between atoms: _49  and  _50
REMARK   23  A    between atoms: _55  and  _57
REMARK   24  A    between atoms: _57  and  _58
REMARK   25  A    between atoms: _57  and  _60
REMARK   26  A    between atoms: _60  and  _61
REMARK   27  A    between atoms: _66  and  _68
REMARK   28  A    between atoms: _68  and  _69
REMARK   29  A    between atoms: _68  and  _71
REMARK   30  A    between atoms: _71  and  _72
REMARK   31  A    between atoms: _72  and  _73
REMARK   32  A    between atoms: _75  and  _77
REMARK   33  A    between atoms: _77  and  _78
REMARK   34  A    between atoms: _77  and  _80
REMARK   35  A    between atoms: _80  and  _81
REMARK   36  A    between atoms: _81  and  _82
REMARK   37  A    between atoms: _84  and  _86
REMARK   38  A    between atoms: _86  and  _87
REMARK   39  A    between atoms: _86  and  _89
REMARK   40  A    between atoms: _89  and  _90
REMARK   41  A    between atoms: _90  and  _91
REMARK   42  A    between atoms: _91  and  _92
REMARK   43  A    between atoms: _92  and  _93
REMARK   44  A    between atoms: _97  and  _99
REMARK   45  A    between atoms: _99  and  _100
REMARK   46  A    between atoms: _99  and  _102
REMARK   47  A    between atoms: _102  and  _103
REMARK   48  A    between atoms: _103  and  _104
REMARK   49  A    between atoms: _104  and  _105
REMARK   50  A    between atoms: _105  and  _106
REMARK   51  A    between atoms: _111  and  _112
REMARK   52  A    between atoms: _117  and  _119
REMARK   53  A    between atoms: _119  and  _120
REMARK   54  A    between atoms: _119  and  _122
REMARK   55  A    between atoms: _125  and  _127
REMARK   56  A    between atoms: _127  and  _128
REMARK   57  A    between atoms: _127  and  _130
REMARK   58  A    between atoms: _130  and  _131
REMARK   59  A    between atoms: _136  and  _138
REMARK   60  A    between atoms: _138  and  _139
REMARK   61  A    between atoms: _138  and  _141
REMARK   62  A    between atoms: _141  and  _142
REMARK   63  A    between atoms: _145  and  _147
REMARK   64  A    between atoms: _147  and  _148
REMARK   65  A    between atoms: _147  and  _150
REMARK   66  A    between atoms: _150  and  _151
REMARK   67  A    between atoms: _157  and  _159
REMARK   68  A    between atoms: _159  and  _160
REMARK   69  A    between atoms: _159  and  _162
REMARK   70  A    between atoms: _162  and  _163
REMARK   71  A    between atoms: _163  and  _164
REMARK   72  A    between atoms: _164  and  _165
REMARK   73  A    between atoms: _165  and  _166
REMARK   74  A    between atoms: _170  and  _172
REMARK   75  A    between atoms: _172  and  _173
REMARK   76  A    between atoms: _172  and  _175
REMARK   77  A    between atoms: _175  and  _176
REMARK   78  A    between atoms: _179  and  _181
REMARK   79  A    between atoms: _181  and  _182
REMARK   80  A    between atoms: _181  and  _184
REMARK   81  A    between atoms: _184  and  _185
REMARK   82  A    between atoms: _188  and  _190
REMARK   83  A    between atoms: _190  and  _191
REMARK   84  A    between atoms: _190  and  _193
REMARK   85  A    between atoms: _193  and  _194
REMARK   86  A    between atoms: _197  and  _199
REMARK   87  A    between atoms: _199  and  _200
REMARK   88  A    between atoms: _199  and  _202
REMARK   89  A    between atoms: _204  and  _206
REMARK   90  A    between atoms: _206  and  _207
REMARK   91  A    between atoms: _206  and  _209
REMARK   92  A    between atoms: _209  and  _210
REMARK   93  A    between atoms: _210  and  _211
REMARK   94  A    between atoms: _211  and  _212
REMARK   95  A    between atoms: _221  and  _223
REMARK   96  A    between atoms: _223  and  _224
REMARK   97  A    between atoms: _223  and  _226
REMARK   98  A    between atoms: _226  and  _227
REMARK   99  A    between atoms: _227  and  _228
REMARK  100  A    between atoms: _228  and  _229
REMARK  101  A    between atoms: _229  and  _230
REMARK  102  A    between atoms: _234  and  _236
REMARK  103  A    between atoms: _236  and  _237
REMARK  104  A    between atoms: _236  and  _239
REMARK  105  A    between atoms: _239  and  _240
REMARK  106  A    between atoms: _245  and  _247
REMARK  107  A    between atoms: _247  and  _248
REMARK  108  A    between atoms: _247  and  _250
REMARK  109  A    between atoms: _250  and  _251
REMARK  110  A    between atoms: _254  and  _256
REMARK  111  A    between atoms: _256  and  _257
REMARK  112  A    between atoms: _260  and  _262
REMARK  113  A    between atoms: _262  and  _263
REMARK  114  A    between atoms: _262  and  _265
REMARK  115  A    between atoms: _268  and  _270
REMARK  116  A    between atoms: _270  and  _271
REMARK  117  A    between atoms: _270  and  _273
REMARK  118  A    between atoms: _273  and  _274
REMARK  119  A    between atoms: _279  and  _281
REMARK  120  A    between atoms: _281  and  _282
REMARK  121  A    between atoms: _281  and  _284
REMARK  122  A    between atoms: _284  and  _285
REMARK  123  A    between atoms: _291  and  _293
REMARK  124  A    between atoms: _293  and  _294
REMARK  125  A    between atoms: _293  and  _296
REMARK  126  A    between atoms: _296  and  _297
REMARK  127  A    between atoms: _300  and  _302
REMARK  128  A    between atoms: _302  and  _303
REMARK  129  A    between atoms: _306  and  _308
REMARK  130  A    between atoms: _308  and  _309
REMARK  131  A    between atoms: _308  and  _311
REMARK  132  A    between atoms: _311  and  _312
REMARK  133  A    between atoms: _314  and  _316
REMARK  134  A    between atoms: _316  and  _317
REMARK  135  A    between atoms: _316  and  _319
REMARK                            x       y       z     vdW  Elec       q    Type
REMARK                         _______ _______ _______ _____ _____    ______ ____
ROOT
ATOM      1  O   HOH     1      21.524   1.274  21.917  0.00  0.00    +0.000 OA
ENDROOT
TORSDOF 0
REMARK  Name = ../refined-set-2016/1n3z/1n3z_pocket.pdb
REMARK  135 active torsions:
REMARK  status: ('A' for Active; 'I' for Inactive)
REMARK    1  A    between atoms: _1  and  _3
REMARK    2  A    between atoms: _3  and  _4
REMARK    3  A    between atoms: _3  and  _6
REMARK    4  A    between atoms: _6  and  _7
REMARK    5  A    between atoms: _7  and  _8
REMARK    6  A    between atoms: _8  and  _9
REMARK    7  A    between atoms: _9  and  _10
REMARK    8  A    between atoms: _14  and  _16
REMARK    9  A    between atoms: _16  and  _17
REMARK   10  A    between atoms: _16  and  _19
REMARK   11  A    between atoms: _19  and  _20
REMARK   12  A    between atoms: _26  and  _28
REMARK   13  A    between atoms: _28  and  _29
REMARK   14  A    between atoms: _28  and  _31
REMARK   15  A    between atoms: _31  and  _32
REMARK   16  A    between atoms: _32  and  _33
REMARK   17  A    between atoms: _33  and  _34
REMARK   18  A    between atoms: _43  and  _45
REMARK   19  A    between atoms: _45  and  _46
REMARK   20  A    between atoms: _45  and  _48
REMARK   21  A    between atoms: _48  and  _49
REMARK   22  A    between atoms: _49  and  _50
REMARK   23  A    between atoms: _55  and  _57
REMARK   24  A    between atoms: _57  and  _58
REMARK   25  A    between atoms: _57  and  _60
REMARK   26  A    between atoms: _60  and  _61
REMARK   27  A    between atoms: _66  and  _68
REMARK   28  A    between atoms: _68  and  _69
REMARK   29  A    between atoms: _68  and  _71
REMARK   30  A    between atoms: _71  and  _72
REMARK   31  A    between atoms: _72  and  _73
REMARK   32  A    between atoms: _75  and  _77
REMARK   33  A    between atoms: _77  and  _78
REMARK   34  A    between atoms: _77  and  _80
REMARK   35  A    between atoms: _80  and  _81
REMARK   36  A    between atoms: _81  and  _82
REMARK   37  A    between atoms: _84  and  _86
REMARK   38  A    between atoms: _86  and  _87
REMARK   39  A    between atoms: _86  and  _89
REMARK   40  A    between atoms: _89  and  _90
REMARK   41  A    between atoms: _90  and  _91
REMARK   42  A    between atoms: _91  and  _92
REMARK   43  A    between atoms: _92  and  _93
REMARK   44  A    between atoms: _97  and  _99
REMARK   45  A    between atoms: _99  and  _100
REMARK   46  A    between atoms: _99  and  _102
REMARK   47  A    between atoms: _102  and  _103
REMARK   48  A    between atoms: _103  and  _104
REMARK   49  A    between atoms: _104  and  _105
REMARK   50  A    between atoms: _105  and  _106
REMARK   51  A    between atoms: _111  and  _112
REMARK   52  A    between atoms: _117  and  _119
REMARK   53  A    between atoms: _119  and  _120
REMARK   54  A    between atoms: _119  and  _122
REMARK   55  A    between atoms: _125  and  _127
REMARK   56  A    between atoms: _127  and  _128
REMARK   57  A    between atoms: _127  and  _130
REMARK   58  A    between atoms: _130  and  _131
REMARK   59  A    between atoms: _136  and  _138
REMARK   60  A    between atoms: _138  and  _139
REMARK   61  A    between atoms: _138  and  _141
REMARK   62  A    between atoms: _141  and  _142
REMARK   63  A    between atoms: _145  and  _147
REMARK   64  A    between atoms: _147  and  _148
REMARK   65  A    between atoms: _147  and  _150
REMARK   66  A    between atoms: _150  and  _151
REMARK   67  A    between atoms: _157  and  _159
REMARK   68  A    between atoms: _159  and  _160
REMARK   69  A    between atoms: _159  and  _162
REMARK   70  A    between atoms: _162  and  _163
REMARK   71  A    between atoms: _163  and  _164
REMARK   72  A    between atoms: _164  and  _165
REMARK   73  A    between atoms: _165  and  _166
REMARK   74  A    between atoms: _170  and  _172
REMARK   75  A    between atoms: _172  and  _173
REMARK   76  A    between atoms: _172  and  _175
REMARK   77  A    between atoms: _175  and  _176
REMARK   78  A    between atoms: _179  and  _181
REMARK   79  A    between atoms: _181  and  _182
REMARK   80  A    between atoms: _181  and  _184
REMARK   81  A    between atoms: _184  and  _185
REMARK   82  A    between atoms: _188  and  _190
REMARK   83  A    between atoms: _190  and  _191
REMARK   84  A    between atoms: _190  and  _193
REMARK   85  A    between atoms: _193  and  _194
REMARK   86  A    between atoms: _197  and  _199
REMARK   87  A    between atoms: _199  and  _200
REMARK   88  A    between atoms: _199  and  _202
REMARK   89  A    between atoms: _204  and  _206
REMARK   90  A    between atoms: _206  and  _207
REMARK   91  A    between atoms: _206  and  _209
REMARK   92  A    between atoms: _209  and  _210
REMARK   93  A    between atoms: _210  and  _211
REMARK   94  A    between atoms: _211  and  _212
REMARK   95  A    between atoms: _221  and  _223
REMARK   96  A    between atoms: _223  and  _224
REMARK   97  A    between atoms: _223  and  _226
REMARK   98  A    between atoms: _226  and  _227
REMARK   99  A    between atoms: _227  and  _228
REMARK  100  A    between atoms: _228  and  _229
REMARK  101  A    between atoms: _229  and  _230
REMARK  102  A    between atoms: _234  and  _236
REMARK  103  A    between atoms: _236  and  _237
REMARK  104  A    between atoms: _236  and  _239
REMARK  105  A    between atoms: _239  and  _240
REMARK  106  A    between atoms: _245  and  _247
REMARK  107  A    between atoms: _247  and  _248
REMARK  108  A    between atoms: _247  and  _250
REMARK  109  A    between atoms: _250  and  _251
REMARK  110  A    between atoms: _254  and  _256
REMARK  111  A    between atoms: _256  and  _257
REMARK  112  A    between atoms: _260  and  _262
REMARK  113  A    between atoms: _262  and  _263
REMARK  114  A    between atoms: _262  and  _265
REMARK  115  A    between atoms: _268  and  _270
REMARK  116  A    between atoms: _270  and  _271
REMARK  117  A    between atoms: _270  and  _273
REMARK  118  A    between atoms: _273  and  _274
REMARK  119  A    between atoms: _279  and  _281
REMARK  120  A    between atoms: _281  and  _282
REMARK  121  A    between atoms: _281  and  _284
REMARK  122  A    between atoms: _284  and  _285
REMARK  123  A    between atoms: _291  and  _293
REMARK  124  A    between atoms: _293  and  _294
REMARK  125  A    between atoms: _293  and  _296
REMARK  126  A    between atoms: _296  and  _297
REMARK  127  A    between atoms: _300  and  _302
REMARK  128  A    between atoms: _302  and  _303
REMARK  129  A    between atoms: _306  and  _308
REMARK  130  A    between atoms: _308  and  _309
REMARK  131  A    between atoms: _308  and  _311
REMARK  132  A    between atoms: _311  and  _312
REMARK  133  A    between atoms: _314  and  _316
REMARK  134  A    between atoms: _316  and  _317
REMARK  135  A    between atoms: _316  and  _319
REMARK                            x       y       z     vdW  Elec       q    Type
REMARK                         _______ _______ _______ _____ _____    ______ ____
ROOT
ATOM      1  O   HOH     1      27.940   7.489   8.541  0.00  0.00    +0.000 OA
ENDROOT
TORSDOF 0
REMARK  Name = ../refined-set-2016/1n3z/1n3z_pocket.pdb
REMARK  135 active torsions:
REMARK  status: ('A' for Active; 'I' for Inactive)
REMARK    1  A    between atoms: _1  and  _3
REMARK    2  A    between atoms: _3  and  _4
REMARK    3  A    between atoms: _3  and  _6
REMARK    4  A    between atoms: _6  and  _7
REMARK    5  A    between atoms: _7  and  _8
REMARK    6  A    between atoms: _8  and  _9
REMARK    7  A    between atoms: _9  and  _10
REMARK    8  A    between atoms: _14  and  _16
REMARK    9  A    between atoms: _16  and  _17
REMARK   10  A    between atoms: _16  and  _19
REMARK   11  A    between atoms: _19  and  _20
REMARK   12  A    between atoms: _26  and  _28
REMARK   13  A    between atoms: _28  and  _29
REMARK   14  A    between atoms: _28  and  _31
REMARK   15  A    between atoms: _31  and  _32
REMARK   16  A    between atoms: _32  and  _33
REMARK   17  A    between atoms: _33  and  _34
REMARK   18  A    between atoms: _43  and  _45
REMARK   19  A    between atoms: _45  and  _46
REMARK   20  A    between atoms: _45  and  _48
REMARK   21  A    between atoms: _48  and  _49
REMARK   22  A    between atoms: _49  and  _50
REMARK   23  A    between atoms: _55  and  _57
REMARK   24  A    between atoms: _57  and  _58
REMARK   25  A    between atoms: _57  and  _60
REMARK   26  A    between atoms: _60  and  _61
REMARK   27  A    between atoms: _66  and  _68
REMARK   28  A    between atoms: _68  and  _69
REMARK   29  A    between atoms: _68  and  _71
REMARK   30  A    between atoms: _71  and  _72
REMARK   31  A    between atoms: _72  and  _73
REMARK   32  A    between atoms: _75  and  _77
REMARK   33  A    between atoms: _77  and  _78
REMARK   34  A    between atoms: _77  and  _80
REMARK   35  A    between atoms: _80  and  _81
REMARK   36  A    between atoms: _81  and  _82
REMARK   37  A    between atoms: _84  and  _86
REMARK   38  A    between atoms: _86  and  _87
REMARK   39  A    between atoms: _86  and  _89
REMARK   40  A    between atoms: _89  and  _90
REMARK   41  A    between atoms: _90  and  _91
REMARK   42  A    between atoms: _91  and  _92
REMARK   43  A    between atoms: _92  and  _93
REMARK   44  A    between atoms: _97  and  _99
REMARK   45  A    between atoms: _99  and  _100
REMARK   46  A    between atoms: _99  and  _102
REMARK   47  A    between atoms: _102  and  _103
REMARK   48  A    between atoms: _103  and  _104
REMARK   49  A    between atoms: _104  and  _105
REMARK   50  A    between atoms: _105  and  _106
REMARK   51  A    between atoms: _111  and  _112
REMARK   52  A    between atoms: _117  and  _119
REMARK   53  A    between atoms: _119  and  _120
REMARK   54  A    between atoms: _119  and  _122
REMARK   55  A    between atoms: _125  and  _127
REMARK   56  A    between atoms: _127  and  _128
REMARK   57  A    between atoms: _127  and  _130
REMARK   58  A    between atoms: _130  and  _131
REMARK   59  A    between atoms: _136  and  _138
REMARK   60  A    between atoms: _138  and  _139
REMARK   61  A    between atoms: _138  and  _141
REMARK   62  A    between atoms: _141  and  _142
REMARK   63  A    between atoms: _145  and  _147
REMARK   64  A    between atoms: _147  and  _148
REMARK   65  A    between atoms: _147  and  _150
REMARK   66  A    between atoms: _150  and  _151
REMARK   67  A    between atoms: _157  and  _159
REMARK   68  A    between atoms: _159  and  _160
REMARK   69  A    between atoms: _159  and  _162
REMARK   70  A    between atoms: _162  and  _163
REMARK   71  A    between atoms: _163  and  _164
REMARK   72  A    between atoms: _164  and  _165
REMARK   73  A    between atoms: _165  and  _166
REMARK   74  A    between atoms: _170  and  _172
REMARK   75  A    between atoms: _172  and  _173
REMARK   76  A    between atoms: _172  and  _175
REMARK   77  A    between atoms: _175  and  _176
REMARK   78  A    between atoms: _179  and  _181
REMARK   79  A    between atoms: _181  and  _182
REMARK   80  A    between atoms: _181  and  _184
REMARK   81  A    between atoms: _184  and  _185
REMARK   82  A    between atoms: _188  and  _190
REMARK   83  A    between atoms: _190  and  _191
REMARK   84  A    between atoms: _190  and  _193
REMARK   85  A    between atoms: _193  and  _194
REMARK   86  A    between atoms: _197  and  _199
REMARK   87  A    between atoms: _199  and  _200
REMARK   88  A    between atoms: _199  and  _202
REMARK   89  A    between atoms: _204  and  _206
REMARK   90  A    between atoms: _206  and  _207
REMARK   91  A    between atoms: _206  and  _209
REMARK   92  A    between atoms: _209  and  _210
REMARK   93  A    between atoms: _210  and  _211
REMARK   94  A    between atoms: _211  and  _212
REMARK   95  A    between atoms: _221  and  _223
REMARK   96  A    between atoms: _223  and  _224
REMARK   97  A    between atoms: _223  and  _226
REMARK   98  A    between atoms: _226  and  _227
REMARK   99  A    between atoms: _227  and  _228
REMARK  100  A    between atoms: _228  and  _229
REMARK  101  A    between atoms: _229  and  _230
REMARK  102  A    between atoms: _234  and  _236
REMARK  103  A    between atoms: _236  and  _237
REMARK  104  A    between atoms: _236  and  _239
REMARK  105  A    between atoms: _239  and  _240
REMARK  106  A    between atoms: _245  and  _247
REMARK  107  A    between atoms: _247  and  _248
REMARK  108  A    between atoms: _247  and  _250
REMARK  109  A    between atoms: _250  and  _251
REMARK  110  A    between atoms: _254  and  _256
REMARK  111  A    between atoms: _256  and  _257
REMARK  112  A    between atoms: _260  and  _262
REMARK  113  A    between atoms: _262  and  _263
REMARK  114  A    between atoms: _262  and  _265
REMARK  115  A    between atoms: _268  and  _270
REMARK  116  A    between atoms: _270  and  _271
REMARK  117  A    between atoms: _270  and  _273
REMARK  118  A    between atoms: _273  and  _274
REMARK  119  A    between atoms: _279  and  _281
REMARK  120  A    between atoms: _281  and  _282
REMARK  121  A    between atoms: _281  and  _284
REMARK  122  A    between atoms: _284  and  _285
REMARK  123  A    between atoms: _291  and  _293
REMARK  124  A    between atoms: _293  and  _294
REMARK  125  A    between atoms: _293  and  _296
REMARK  126  A    between atoms: _296  and  _297
REMARK  127  A    between atoms: _300  and  _302
REMARK  128  A    between atoms: _302  and  _303
REMARK  129  A    between atoms: _306  and  _308
REMARK  130  A    between atoms: _308  and  _309
REMARK  131  A    between atoms: _308  and  _311
REMARK  132  A    between atoms: _311  and  _312
REMARK  133  A    between atoms: _314  and  _316
REMARK  134  A    between atoms: _316  and  _317
REMARK  135  A    between atoms: _316  and  _319
REMARK                            x       y       z     vdW  Elec       q    Type
REMARK                         _______ _______ _______ _____ _____    ______ ____
ROOT
ATOM      1  O   HOH     1      30.539   4.214   5.370  0.00  0.00    +0.000 OA
ENDROOT
TORSDOF 0
REMARK  Name = ../refined-set-2016/1n3z/1n3z_pocket.pdb
REMARK  135 active torsions:
REMARK  status: ('A' for Active; 'I' for Inactive)
REMARK    1  A    between atoms: _1  and  _3
REMARK    2  A    between atoms: _3  and  _4
REMARK    3  A    between atoms: _3  and  _6
REMARK    4  A    between atoms: _6  and  _7
REMARK    5  A    between atoms: _7  and  _8
REMARK    6  A    between atoms: _8  and  _9
REMARK    7  A    between atoms: _9  and  _10
REMARK    8  A    between atoms: _14  and  _16
REMARK    9  A    between atoms: _16  and  _17
REMARK   10  A    between atoms: _16  and  _19
REMARK   11  A    between atoms: _19  and  _20
REMARK   12  A    between atoms: _26  and  _28
REMARK   13  A    between atoms: _28  and  _29
REMARK   14  A    between atoms: _28  and  _31
REMARK   15  A    between atoms: _31  and  _32
REMARK   16  A    between atoms: _32  and  _33
REMARK   17  A    between atoms: _33  and  _34
REMARK   18  A    between atoms: _43  and  _45
REMARK   19  A    between atoms: _45  and  _46
REMARK   20  A    between atoms: _45  and  _48
REMARK   21  A    between atoms: _48  and  _49
REMARK   22  A    between atoms: _49  and  _50
REMARK   23  A    between atoms: _55  and  _57
REMARK   24  A    between atoms: _57  and  _58
REMARK   25  A    between atoms: _57  and  _60
REMARK   26  A    between atoms: _60  and  _61
REMARK   27  A    between atoms: _66  and  _68
REMARK   28  A    between atoms: _68  and  _69
REMARK   29  A    between atoms: _68  and  _71
REMARK   30  A    between atoms: _71  and  _72
REMARK   31  A    between atoms: _72  and  _73
REMARK   32  A    between atoms: _75  and  _77
REMARK   33  A    between atoms: _77  and  _78
REMARK   34  A    between atoms: _77  and  _80
REMARK   35  A    between atoms: _80  and  _81
REMARK   36  A    between atoms: _81  and  _82
REMARK   37  A    between atoms: _84  and  _86
REMARK   38  A    between atoms: _86  and  _87
REMARK   39  A    between atoms: _86  and  _89
REMARK   40  A    between atoms: _89  and  _90
REMARK   41  A    between atoms: _90  and  _91
REMARK   42  A    between atoms: _91  and  _92
REMARK   43  A    between atoms: _92  and  _93
REMARK   44  A    between atoms: _97  and  _99
REMARK   45  A    between atoms: _99  and  _100
REMARK   46  A    between atoms: _99  and  _102
REMARK   47  A    between atoms: _102  and  _103
REMARK   48  A    between atoms: _103  and  _104
REMARK   49  A    between atoms: _104  and  _105
REMARK   50  A    between atoms: _105  and  _106
REMARK   51  A    between atoms: _111  and  _112
REMARK   52  A    between atoms: _117  and  _119
REMARK   53  A    between atoms: _119  and  _120
REMARK   54  A    between atoms: _119  and  _122
REMARK   55  A    between atoms: _125  and  _127
REMARK   56  A    between atoms: _127  and  _128
REMARK   57  A    between atoms: _127  and  _130
REMARK   58  A    between atoms: _130  and  _131
REMARK   59  A    between atoms: _136  and  _138
REMARK   60  A    between atoms: _138  and  _139
REMARK   61  A    between atoms: _138  and  _141
REMARK   62  A    between atoms: _141  and  _142
REMARK   63  A    between atoms: _145  and  _147
REMARK   64  A    between atoms: _147  and  _148
REMARK   65  A    between atoms: _147  and  _150
REMARK   66  A    between atoms: _150  and  _151
REMARK   67  A    between atoms: _157  and  _159
REMARK   68  A    between atoms: _159  and  _160
REMARK   69  A    between atoms: _159  and  _162
REMARK   70  A    between atoms: _162  and  _163
REMARK   71  A    between atoms: _163  and  _164
REMARK   72  A    between atoms: _164  and  _165
REMARK   73  A    between atoms: _165  and  _166
REMARK   74  A    between atoms: _170  and  _172
REMARK   75  A    between atoms: _172  and  _173
REMARK   76  A    between atoms: _172  and  _175
REMARK   77  A    between atoms: _175  and  _176
REMARK   78  A    between atoms: _179  and  _181
REMARK   79  A    between atoms: _181  and  _182
REMARK   80  A    between atoms: _181  and  _184
REMARK   81  A    between atoms: _184  and  _185
REMARK   82  A    between atoms: _188  and  _190
REMARK   83  A    between atoms: _190  and  _191
REMARK   84  A    between atoms: _190  and  _193
REMARK   85  A    between atoms: _193  and  _194
REMARK   86  A    between atoms: _197  and  _199
REMARK   87  A    between atoms: _199  and  _200
REMARK   88  A    between atoms: _199  and  _202
REMARK   89  A    between atoms: _204  and  _206
REMARK   90  A    between atoms: _206  and  _207
REMARK   91  A    between atoms: _206  and  _209
REMARK   92  A    between atoms: _209  and  _210
REMARK   93  A    between atoms: _210  and  _211
REMARK   94  A    between atoms: _211  and  _212
REMARK   95  A    between atoms: _221  and  _223
REMARK   96  A    between atoms: _223  and  _224
REMARK   97  A    between atoms: _223  and  _226
REMARK   98  A    between atoms: _226  and  _227
REMARK   99  A    between atoms: _227  and  _228
REMARK  100  A    between atoms: _228  and  _229
REMARK  101  A    between atoms: _229  and  _230
REMARK  102  A    between atoms: _234  and  _236
REMARK  103  A    between atoms: _236  and  _237
REMARK  104  A    between atoms: _236  and  _239
REMARK  105  A    between atoms: _239  and  _240
REMARK  106  A    between atoms: _245  and  _247
REMARK  107  A    between atoms: _247  and  _248
REMARK  108  A    between atoms: _247  and  _250
REMARK  109  A    between atoms: _250  and  _251
REMARK  110  A    between atoms: _254  and  _256
REMARK  111  A    between atoms: _256  and  _257
REMARK  112  A    between atoms: _260  and  _262
REMARK  113  A    between atoms: _262  and  _263
REMARK  114  A    between atoms: _262  and  _265
REMARK  115  A    between atoms: _268  and  _270
REMARK  116  A    between atoms: _270  and  _271
REMARK  117  A    between atoms: _270  and  _273
REMARK  118  A    between atoms: _273  and  _274
REMARK  119  A    between atoms: _279  and  _281
REMARK  120  A    between atoms: _281  and  _282
REMARK  121  A    between atoms: _281  and  _284
REMARK  122  A    between atoms: _284  and  _285
REMARK  123  A    between atoms: _291  and  _293
REMARK  124  A    between atoms: _293  and  _294
REMARK  125  A    between atoms: _293  and  _296
REMARK  126  A    between atoms: _296  and  _297
REMARK  127  A    between atoms: _300  and  _302
REMARK  128  A    between atoms: _302  and  _303
REMARK  129  A    between atoms: _306  and  _308
REMARK  130  A    between atoms: _308  and  _309
REMARK  131  A    between atoms: _308  and  _311
REMARK  132  A    between atoms: _311  and  _312
REMARK  133  A    between atoms: _314  and  _316
REMARK  134  A    between atoms: _316  and  _317
REMARK  135  A    between atoms: _316  and  _319
REMARK                            x       y       z     vdW  Elec       q    Type
REMARK                         _______ _______ _______ _____ _____    ______ ____
ROOT
ATOM      1  O   HOH     1      14.991   1.597  11.658  0.00  0.00    +0.000 OA
ENDROOT
TORSDOF 0
REMARK  Name = ../refined-set-2016/1n3z/1n3z_pocket.pdb
REMARK  135 active torsions:
REMARK  status: ('A' for Active; 'I' for Inactive)
REMARK    1  A    between atoms: _1  and  _3
REMARK    2  A    between atoms: _3  and  _4
REMARK    3  A    between atoms: _3  and  _6
REMARK    4  A    between atoms: _6  and  _7
REMARK    5  A    between atoms: _7  and  _8
REMARK    6  A    between atoms: _8  and  _9
REMARK    7  A    between atoms: _9  and  _10
REMARK    8  A    between atoms: _14  and  _16
REMARK    9  A    between atoms: _16  and  _17
REMARK   10  A    between atoms: _16  and  _19
REMARK   11  A    between atoms: _19  and  _20
REMARK   12  A    between atoms: _26  and  _28
REMARK   13  A    between atoms: _28  and  _29
REMARK   14  A    between atoms: _28  and  _31
REMARK   15  A    between atoms: _31  and  _32
REMARK   16  A    between atoms: _32  and  _33
REMARK   17  A    between atoms: _33  and  _34
REMARK   18  A    between atoms: _43  and  _45
REMARK   19  A    between atoms: _45  and  _46
REMARK   20  A    between atoms: _45  and  _48
REMARK   21  A    between atoms: _48  and  _49
REMARK   22  A    between atoms: _49  and  _50
REMARK   23  A    between atoms: _55  and  _57
REMARK   24  A    between atoms: _57  and  _58
REMARK   25  A    between atoms: _57  and  _60
REMARK   26  A    between atoms: _60  and  _61
REMARK   27  A    between atoms: _66  and  _68
REMARK   28  A    between atoms: _68  and  _69
REMARK   29  A    between atoms: _68  and  _71
REMARK   30  A    between atoms: _71  and  _72
REMARK   31  A    between atoms: _72  and  _73
REMARK   32  A    between atoms: _75  and  _77
REMARK   33  A    between atoms: _77  and  _78
REMARK   34  A    between atoms: _77  and  _80
REMARK   35  A    between atoms: _80  and  _81
REMARK   36  A    between atoms: _81  and  _82
REMARK   37  A    between atoms: _84  and  _86
REMARK   38  A    between atoms: _86  and  _87
REMARK   39  A    between atoms: _86  and  _89
REMARK   40  A    between atoms: _89  and  _90
REMARK   41  A    between atoms: _90  and  _91
REMARK   42  A    between atoms: _91  and  _92
REMARK   43  A    between atoms: _92  and  _93
REMARK   44  A    between atoms: _97  and  _99
REMARK   45  A    between atoms: _99  and  _100
REMARK   46  A    between atoms: _99  and  _102
REMARK   47  A    between atoms: _102  and  _103
REMARK   48  A    between atoms: _103  and  _104
REMARK   49  A    between atoms: _104  and  _105
REMARK   50  A    between atoms: _105  and  _106
REMARK   51  A    between atoms: _111  and  _112
REMARK   52  A    between atoms: _117  and  _119
REMARK   53  A    between atoms: _119  and  _120
REMARK   54  A    between atoms: _119  and  _122
REMARK   55  A    between atoms: _125  and  _127
REMARK   56  A    between atoms: _127  and  _128
REMARK   57  A    between atoms: _127  and  _130
REMARK   58  A    between atoms: _130  and  _131
REMARK   59  A    between atoms: _136  and  _138
REMARK   60  A    between atoms: _138  and  _139
REMARK   61  A    between atoms: _138  and  _141
REMARK   62  A    between atoms: _141  and  _142
REMARK   63  A    between atoms: _145  and  _147
REMARK   64  A    between atoms: _147  and  _148
REMARK   65  A    between atoms: _147  and  _150
REMARK   66  A    between atoms: _150  and  _151
REMARK   67  A    between atoms: _157  and  _159
REMARK   68  A    between atoms: _159  and  _160
REMARK   69  A    between atoms: _159  and  _162
REMARK   70  A    between atoms: _162  and  _163
REMARK   71  A    between atoms: _163  and  _164
REMARK   72  A    between atoms: _164  and  _165
REMARK   73  A    between atoms: _165  and  _166
REMARK   74  A    between atoms: _170  and  _172
REMARK   75  A    between atoms: _172  and  _173
REMARK   76  A    between atoms: _172  and  _175
REMARK   77  A    between atoms: _175  and  _176
REMARK   78  A    between atoms: _179  and  _181
REMARK   79  A    between atoms: _181  and  _182
REMARK   80  A    between atoms: _181  and  _184
REMARK   81  A    between atoms: _184  and  _185
REMARK   82  A    between atoms: _188  and  _190
REMARK   83  A    between atoms: _190  and  _191
REMARK   84  A    between atoms: _190  and  _193
REMARK   85  A    between atoms: _193  and  _194
REMARK   86  A    between atoms: _197  and  _199
REMARK   87  A    between atoms: _199  and  _200
REMARK   88  A    between atoms: _199  and  _202
REMARK   89  A    between atoms: _204  and  _206
REMARK   90  A    between atoms: _206  and  _207
REMARK   91  A    between atoms: _206  and  _209
REMARK   92  A    between atoms: _209  and  _210
REMARK   93  A    between atoms: _210  and  _211
REMARK   94  A    between atoms: _211  and  _212
REMARK   95  A    between atoms: _221  and  _223
REMARK   96  A    between atoms: _223  and  _224
REMARK   97  A    between atoms: _223  and  _226
REMARK   98  A    between atoms: _226  and  _227
REMARK   99  A    between atoms: _227  and  _228
REMARK  100  A    between atoms: _228  and  _229
REMARK  101  A    between atoms: _229  and  _230
REMARK  102  A    between atoms: _234  and  _236
REMARK  103  A    between atoms: _236  and  _237
REMARK  104  A    between atoms: _236  and  _239
REMARK  105  A    between atoms: _239  and  _240
REMARK  106  A    between atoms: _245  and  _247
REMARK  107  A    between atoms: _247  and  _248
REMARK  108  A    between atoms: _247  and  _250
REMARK  109  A    between atoms: _250  and  _251
REMARK  110  A    between atoms: _254  and  _256
REMARK  111  A    between atoms: _256  and  _257
REMARK  112  A    between atoms: _260  and  _262
REMARK  113  A    between atoms: _262  and  _263
REMARK  114  A    between atoms: _262  and  _265
REMARK  115  A    between atoms: _268  and  _270
REMARK  116  A    between atoms: _270  and  _271
REMARK  117  A    between atoms: _270  and  _273
REMARK  118  A    between atoms: _273  and  _274
REMARK  119  A    between atoms: _279  and  _281
REMARK  120  A    between atoms: _281  and  _282
REMARK  121  A    between atoms: _281  and  _284
REMARK  122  A    between atoms: _284  and  _285
REMARK  123  A    between atoms: _291  and  _293
REMARK  124  A    between atoms: _293  and  _294
REMARK  125  A    between atoms: _293  and  _296
REMARK  126  A    between atoms: _296  and  _297
REMARK  127  A    between atoms: _300  and  _302
REMARK  128  A    between atoms: _302  and  _303
REMARK  129  A    between atoms: _306  and  _308
REMARK  130  A    between atoms: _308  and  _309
REMARK  131  A    between atoms: _308  and  _311
REMARK  132  A    between atoms: _311  and  _312
REMARK  133  A    between atoms: _314  and  _316
REMARK  134  A    between atoms: _316  and  _317
REMARK  135  A    between atoms: _316  and  _319
REMARK                            x       y       z     vdW  Elec       q    Type
REMARK                         _______ _______ _______ _____ _____    ______ ____
ROOT
ATOM      1  O   HOH     1      16.941   3.336  11.785  0.00  0.00    +0.000 OA
ENDROOT
TORSDOF 0
REMARK  Name = ../refined-set-2016/1n3z/1n3z_pocket.pdb
REMARK  135 active torsions:
REMARK  status: ('A' for Active; 'I' for Inactive)
REMARK    1  A    between atoms: _1  and  _3
REMARK    2  A    between atoms: _3  and  _4
REMARK    3  A    between atoms: _3  and  _6
REMARK    4  A    between atoms: _6  and  _7
REMARK    5  A    between atoms: _7  and  _8
REMARK    6  A    between atoms: _8  and  _9
REMARK    7  A    between atoms: _9  and  _10
REMARK    8  A    between atoms: _14  and  _16
REMARK    9  A    between atoms: _16  and  _17
REMARK   10  A    between atoms: _16  and  _19
REMARK   11  A    between atoms: _19  and  _20
REMARK   12  A    between atoms: _26  and  _28
REMARK   13  A    between atoms: _28  and  _29
REMARK   14  A    between atoms: _28  and  _31
REMARK   15  A    between atoms: _31  and  _32
REMARK   16  A    between atoms: _32  and  _33
REMARK   17  A    between atoms: _33  and  _34
REMARK   18  A    between atoms: _43  and  _45
REMARK   19  A    between atoms: _45  and  _46
REMARK   20  A    between atoms: _45  and  _48
REMARK   21  A    between atoms: _48  and  _49
REMARK   22  A    between atoms: _49  and  _50
REMARK   23  A    between atoms: _55  and  _57
REMARK   24  A    between atoms: _57  and  _58
REMARK   25  A    between atoms: _57  and  _60
REMARK   26  A    between atoms: _60  and  _61
REMARK   27  A    between atoms: _66  and  _68
REMARK   28  A    between atoms: _68  and  _69
REMARK   29  A    between atoms: _68  and  _71
REMARK   30  A    between atoms: _71  and  _72
REMARK   31  A    between atoms: _72  and  _73
REMARK   32  A    between atoms: _75  and  _77
REMARK   33  A    between atoms: _77  and  _78
REMARK   34  A    between atoms: _77  and  _80
REMARK   35  A    between atoms: _80  and  _81
REMARK   36  A    between atoms: _81  and  _82
REMARK   37  A    between atoms: _84  and  _86
REMARK   38  A    between atoms: _86  and  _87
REMARK   39  A    between atoms: _86  and  _89
REMARK   40  A    between atoms: _89  and  _90
REMARK   41  A    between atoms: _90  and  _91
REMARK   42  A    between atoms: _91  and  _92
REMARK   43  A    between atoms: _92  and  _93
REMARK   44  A    between atoms: _97  and  _99
REMARK   45  A    between atoms: _99  and  _100
REMARK   46  A    between atoms: _99  and  _102
REMARK   47  A    between atoms: _102  and  _103
REMARK   48  A    between atoms: _103  and  _104
REMARK   49  A    between atoms: _104  and  _105
REMARK   50  A    between atoms: _105  and  _106
REMARK   51  A    between atoms: _111  and  _112
REMARK   52  A    between atoms: _117  and  _119
REMARK   53  A    between atoms: _119  and  _120
REMARK   54  A    between atoms: _119  and  _122
REMARK   55  A    between atoms: _125  and  _127
REMARK   56  A    between atoms: _127  and  _128
REMARK   57  A    between atoms: _127  and  _130
REMARK   58  A    between atoms: _130  and  _131
REMARK   59  A    between atoms: _136  and  _138
REMARK   60  A    between atoms: _138  and  _139
REMARK   61  A    between atoms: _138  and  _141
REMARK   62  A    between atoms: _141  and  _142
REMARK   63  A    between atoms: _145  and  _147
REMARK   64  A    between atoms: _147  and  _148
REMARK   65  A    between atoms: _147  and  _150
REMARK   66  A    between atoms: _150  and  _151
REMARK   67  A    between atoms: _157  and  _159
REMARK   68  A    between atoms: _159  and  _160
REMARK   69  A    between atoms: _159  and  _162
REMARK   70  A    between atoms: _162  and  _163
REMARK   71  A    between atoms: _163  and  _164
REMARK   72  A    between atoms: _164  and  _165
REMARK   73  A    between atoms: _165  and  _166
REMARK   74  A    between atoms: _170  and  _172
REMARK   75  A    between atoms: _172  and  _173
REMARK   76  A    between atoms: _172  and  _175
REMARK   77  A    between atoms: _175  and  _176
REMARK   78  A    between atoms: _179  and  _181
REMARK   79  A    between atoms: _181  and  _182
REMARK   80  A    between atoms: _181  and  _184
REMARK   81  A    between atoms: _184  and  _185
REMARK   82  A    between atoms: _188  and  _190
REMARK   83  A    between atoms: _190  and  _191
REMARK   84  A    between atoms: _190  and  _193
REMARK   85  A    between atoms: _193  and  _194
REMARK   86  A    between atoms: _197  and  _199
REMARK   87  A    between atoms: _199  and  _200
REMARK   88  A    between atoms: _199  and  _202
REMARK   89  A    between atoms: _204  and  _206
REMARK   90  A    between atoms: _206  and  _207
REMARK   91  A    between atoms: _206  and  _209
REMARK   92  A    between atoms: _209  and  _210
REMARK   93  A    between atoms: _210  and  _211
REMARK   94  A    between atoms: _211  and  _212
REMARK   95  A    between atoms: _221  and  _223
REMARK   96  A    between atoms: _223  and  _224
REMARK   97  A    between atoms: _223  and  _226
REMARK   98  A    between atoms: _226  and  _227
REMARK   99  A    between atoms: _227  and  _228
REMARK  100  A    between atoms: _228  and  _229
REMARK  101  A    between atoms: _229  and  _230
REMARK  102  A    between atoms: _234  and  _236
REMARK  103  A    between atoms: _236  and  _237
REMARK  104  A    between atoms: _236  and  _239
REMARK  105  A    between atoms: _239  and  _240
REMARK  106  A    between atoms: _245  and  _247
REMARK  107  A    between atoms: _247  and  _248
REMARK  108  A    between atoms: _247  and  _250
REMARK  109  A    between atoms: _250  and  _251
REMARK  110  A    between atoms: _254  and  _256
REMARK  111  A    between atoms: _256  and  _257
REMARK  112  A    between atoms: _260  and  _262
REMARK  113  A    between atoms: _262  and  _263
REMARK  114  A    between atoms: _262  and  _265
REMARK  115  A    between atoms: _268  and  _270
REMARK  116  A    between atoms: _270  and  _271
REMARK  117  A    between atoms: _270  and  _273
REMARK  118  A    between atoms: _273  and  _274
REMARK  119  A    between atoms: _279  and  _281
REMARK  120  A    between atoms: _281  and  _282
REMARK  121  A    between atoms: _281  and  _284
REMARK  122  A    between atoms: _284  and  _285
REMARK  123  A    between atoms: _291  and  _293
REMARK  124  A    between atoms: _293  and  _294
REMARK  125  A    between atoms: _293  and  _296
REMARK  126  A    between atoms: _296  and  _297
REMARK  127  A    between atoms: _300  and  _302
REMARK  128  A    between atoms: _302  and  _303
REMARK  129  A    between atoms: _306  and  _308
REMARK  130  A    between atoms: _308  and  _309
REMARK  131  A    between atoms: _308  and  _311
REMARK  132  A    between atoms: _311  and  _312
REMARK  133  A    between atoms: _314  and  _316
REMARK  134  A    between atoms: _316  and  _317
REMARK  135  A    between atoms: _316  and  _319
REMARK                            x       y       z     vdW  Elec       q    Type
REMARK                         _______ _______ _______ _____ _____    ______ ____
ROOT
ATOM      1  O   HOH     1      14.014  -0.226  12.934  0.00  0.00    +0.000 OA
ENDROOT
TORSDOF 0
REMARK  Name = ../refined-set-2016/1n3z/1n3z_pocket.pdb
REMARK  135 active torsions:
REMARK  status: ('A' for Active; 'I' for Inactive)
REMARK    1  A    between atoms: _1  and  _3
REMARK    2  A    between atoms: _3  and  _4
REMARK    3  A    between atoms: _3  and  _6
REMARK    4  A    between atoms: _6  and  _7
REMARK    5  A    between atoms: _7  and  _8
REMARK    6  A    between atoms: _8  and  _9
REMARK    7  A    between atoms: _9  and  _10
REMARK    8  A    between atoms: _14  and  _16
REMARK    9  A    between atoms: _16  and  _17
REMARK   10  A    between atoms: _16  and  _19
REMARK   11  A    between atoms: _19  and  _20
REMARK   12  A    between atoms: _26  and  _28
REMARK   13  A    between atoms: _28  and  _29
REMARK   14  A    between atoms: _28  and  _31
REMARK   15  A    between atoms: _31  and  _32
REMARK   16  A    between atoms: _32  and  _33
REMARK   17  A    between atoms: _33  and  _34
REMARK   18  A    between atoms: _43  and  _45
REMARK   19  A    between atoms: _45  and  _46
REMARK   20  A    between atoms: _45  and  _48
REMARK   21  A    between atoms: _48  and  _49
REMARK   22  A    between atoms: _49  and  _50
REMARK   23  A    between atoms: _55  and  _57
REMARK   24  A    between atoms: _57  and  _58
REMARK   25  A    between atoms: _57  and  _60
REMARK   26  A    between atoms: _60  and  _61
REMARK   27  A    between atoms: _66  and  _68
REMARK   28  A    between atoms: _68  and  _69
REMARK   29  A    between atoms: _68  and  _71
REMARK   30  A    between atoms: _71  and  _72
REMARK   31  A    between atoms: _72  and  _73
REMARK   32  A    between atoms: _75  and  _77
REMARK   33  A    between atoms: _77  and  _78
REMARK   34  A    between atoms: _77  and  _80
REMARK   35  A    between atoms: _80  and  _81
REMARK   36  A    between atoms: _81  and  _82
REMARK   37  A    between atoms: _84  and  _86
REMARK   38  A    between atoms: _86  and  _87
REMARK   39  A    between atoms: _86  and  _89
REMARK   40  A    between atoms: _89  and  _90
REMARK   41  A    between atoms: _90  and  _91
REMARK   42  A    between atoms: _91  and  _92
REMARK   43  A    between atoms: _92  and  _93
REMARK   44  A    between atoms: _97  and  _99
REMARK   45  A    between atoms: _99  and  _100
REMARK   46  A    between atoms: _99  and  _102
REMARK   47  A    between atoms: _102  and  _103
REMARK   48  A    between atoms: _103  and  _104
REMARK   49  A    between atoms: _104  and  _105
REMARK   50  A    between atoms: _105  and  _106
REMARK   51  A    between atoms: _111  and  _112
REMARK   52  A    between atoms: _117  and  _119
REMARK   53  A    between atoms: _119  and  _120
REMARK   54  A    between atoms: _119  and  _122
REMARK   55  A    between atoms: _125  and  _127
REMARK   56  A    between atoms: _127  and  _128
REMARK   57  A    between atoms: _127  and  _130
REMARK   58  A    between atoms: _130  and  _131
REMARK   59  A    between atoms: _136  and  _138
REMARK   60  A    between atoms: _138  and  _139
REMARK   61  A    between atoms: _138  and  _141
REMARK   62  A    between atoms: _141  and  _142
REMARK   63  A    between atoms: _145  and  _147
REMARK   64  A    between atoms: _147  and  _148
REMARK   65  A    between atoms: _147  and  _150
REMARK   66  A    between atoms: _150  and  _151
REMARK   67  A    between atoms: _157  and  _159
REMARK   68  A    between atoms: _159  and  _160
REMARK   69  A    between atoms: _159  and  _162
REMARK   70  A    between atoms: _162  and  _163
REMARK   71  A    between atoms: _163  and  _164
REMARK   72  A    between atoms: _164  and  _165
REMARK   73  A    between atoms: _165  and  _166
REMARK   74  A    between atoms: _170  and  _172
REMARK   75  A    between atoms: _172  and  _173
REMARK   76  A    between atoms: _172  and  _175
REMARK   77  A    between atoms: _175  and  _176
REMARK   78  A    between atoms: _179  and  _181
REMARK   79  A    between atoms: _181  and  _182
REMARK   80  A    between atoms: _181  and  _184
REMARK   81  A    between atoms: _184  and  _185
REMARK   82  A    between atoms: _188  and  _190
REMARK   83  A    between atoms: _190  and  _191
REMARK   84  A    between atoms: _190  and  _193
REMARK   85  A    between atoms: _193  and  _194
REMARK   86  A    between atoms: _197  and  _199
REMARK   87  A    between atoms: _199  and  _200
REMARK   88  A    between atoms: _199  and  _202
REMARK   89  A    between atoms: _204  and  _206
REMARK   90  A    between atoms: _206  and  _207
REMARK   91  A    between atoms: _206  and  _209
REMARK   92  A    between atoms: _209  and  _210
REMARK   93  A    between atoms: _210  and  _211
REMARK   94  A    between atoms: _211  and  _212
REMARK   95  A    between atoms: _221  and  _223
REMARK   96  A    between atoms: _223  and  _224
REMARK   97  A    between atoms: _223  and  _226
REMARK   98  A    between atoms: _226  and  _227
REMARK   99  A    between atoms: _227  and  _228
REMARK  100  A    between atoms: _228  and  _229
REMARK  101  A    between atoms: _229  and  _230
REMARK  102  A    between atoms: _234  and  _236
REMARK  103  A    between atoms: _236  and  _237
REMARK  104  A    between atoms: _236  and  _239
REMARK  105  A    between atoms: _239  and  _240
REMARK  106  A    between atoms: _245  and  _247
REMARK  107  A    between atoms: _247  and  _248
REMARK  108  A    between atoms: _247  and  _250
REMARK  109  A    between atoms: _250  and  _251
REMARK  110  A    between atoms: _254  and  _256
REMARK  111  A    between atoms: _256  and  _257
REMARK  112  A    between atoms: _260  and  _262
REMARK  113  A    between atoms: _262  and  _263
REMARK  114  A    between atoms: _262  and  _265
REMARK  115  A    between atoms: _268  and  _270
REMARK  116  A    between atoms: _270  and  _271
REMARK  117  A    between atoms: _270  and  _273
REMARK  118  A    between atoms: _273  and  _274
REMARK  119  A    between atoms: _279  and  _281
REMARK  120  A    between atoms: _281  and  _282
REMARK  121  A    between atoms: _281  and  _284
REMARK  122  A    between atoms: _284  and  _285
REMARK  123  A    between atoms: _291  and  _293
REMARK  124  A    between atoms: _293  and  _294
REMARK  125  A    between atoms: _293  and  _296
REMARK  126  A    between atoms: _296  and  _297
REMARK  127  A    between atoms: _300  and  _302
REMARK  128  A    between atoms: _302  and  _303
REMARK  129  A    between atoms: _306  and  _308
REMARK  130  A    between atoms: _308  and  _309
REMARK  131  A    between atoms: _308  and  _311
REMARK  132  A    between atoms: _311  and  _312
REMARK  133  A    between atoms: _314  and  _316
REMARK  134  A    between atoms: _316  and  _317
REMARK  135  A    between atoms: _316  and  _319
REMARK                            x       y       z     vdW  Elec       q    Type
REMARK                         _______ _______ _______ _____ _____    ______ ____
ROOT
ATOM      1  O   HOH     1      15.111   0.757  17.496  0.00  0.00    +0.000 OA
ENDROOT
TORSDOF 0
REMARK  Name = ../refined-set-2016/1n3z/1n3z_pocket.pdb
REMARK  135 active torsions:
REMARK  status: ('A' for Active; 'I' for Inactive)
REMARK    1  A    between atoms: _1  and  _3
REMARK    2  A    between atoms: _3  and  _4
REMARK    3  A    between atoms: _3  and  _6
REMARK    4  A    between atoms: _6  and  _7
REMARK    5  A    between atoms: _7  and  _8
REMARK    6  A    between atoms: _8  and  _9
REMARK    7  A    between atoms: _9  and  _10
REMARK    8  A    between atoms: _14  and  _16
REMARK    9  A    between atoms: _16  and  _17
REMARK   10  A    between atoms: _16  and  _19
REMARK   11  A    between atoms: _19  and  _20
REMARK   12  A    between atoms: _26  and  _28
REMARK   13  A    between atoms: _28  and  _29
REMARK   14  A    between atoms: _28  and  _31
REMARK   15  A    between atoms: _31  and  _32
REMARK   16  A    between atoms: _32  and  _33
REMARK   17  A    between atoms: _33  and  _34
REMARK   18  A    between atoms: _43  and  _45
REMARK   19  A    between atoms: _45  and  _46
REMARK   20  A    between atoms: _45  and  _48
REMARK   21  A    between atoms: _48  and  _49
REMARK   22  A    between atoms: _49  and  _50
REMARK   23  A    between atoms: _55  and  _57
REMARK   24  A    between atoms: _57  and  _58
REMARK   25  A    between atoms: _57  and  _60
REMARK   26  A    between atoms: _60  and  _61
REMARK   27  A    between atoms: _66  and  _68
REMARK   28  A    between atoms: _68  and  _69
REMARK   29  A    between atoms: _68  and  _71
REMARK   30  A    between atoms: _71  and  _72
REMARK   31  A    between atoms: _72  and  _73
REMARK   32  A    between atoms: _75  and  _77
REMARK   33  A    between atoms: _77  and  _78
REMARK   34  A    between atoms: _77  and  _80
REMARK   35  A    between atoms: _80  and  _81
REMARK   36  A    between atoms: _81  and  _82
REMARK   37  A    between atoms: _84  and  _86
REMARK   38  A    between atoms: _86  and  _87
REMARK   39  A    between atoms: _86  and  _89
REMARK   40  A    between atoms: _89  and  _90
REMARK   41  A    between atoms: _90  and  _91
REMARK   42  A    between atoms: _91  and  _92
REMARK   43  A    between atoms: _92  and  _93
REMARK   44  A    between atoms: _97  and  _99
REMARK   45  A    between atoms: _99  and  _100
REMARK   46  A    between atoms: _99  and  _102
REMARK   47  A    between atoms: _102  and  _103
REMARK   48  A    between atoms: _103  and  _104
REMARK   49  A    between atoms: _104  and  _105
REMARK   50  A    between atoms: _105  and  _106
REMARK   51  A    between atoms: _111  and  _112
REMARK   52  A    between atoms: _117  and  _119
REMARK   53  A    between atoms: _119  and  _120
REMARK   54  A    between atoms: _119  and  _122
REMARK   55  A    between atoms: _125  and  _127
REMARK   56  A    between atoms: _127  and  _128
REMARK   57  A    between atoms: _127  and  _130
REMARK   58  A    between atoms: _130  and  _131
REMARK   59  A    between atoms: _136  and  _138
REMARK   60  A    between atoms: _138  and  _139
REMARK   61  A    between atoms: _138  and  _141
REMARK   62  A    between atoms: _141  and  _142
REMARK   63  A    between atoms: _145  and  _147
REMARK   64  A    between atoms: _147  and  _148
REMARK   65  A    between atoms: _147  and  _150
REMARK   66  A    between atoms: _150  and  _151
REMARK   67  A    between atoms: _157  and  _159
REMARK   68  A    between atoms: _159  and  _160
REMARK   69  A    between atoms: _159  and  _162
REMARK   70  A    between atoms: _162  and  _163
REMARK   71  A    between atoms: _163  and  _164
REMARK   72  A    between atoms: _164  and  _165
REMARK   73  A    between atoms: _165  and  _166
REMARK   74  A    between atoms: _170  and  _172
REMARK   75  A    between atoms: _172  and  _173
REMARK   76  A    between atoms: _172  and  _175
REMARK   77  A    between atoms: _175  and  _176
REMARK   78  A    between atoms: _179  and  _181
REMARK   79  A    between atoms: _181  and  _182
REMARK   80  A    between atoms: _181  and  _184
REMARK   81  A    between atoms: _184  and  _185
REMARK   82  A    between atoms: _188  and  _190
REMARK   83  A    between atoms: _190  and  _191
REMARK   84  A    between atoms: _190  and  _193
REMARK   85  A    between atoms: _193  and  _194
REMARK   86  A    between atoms: _197  and  _199
REMARK   87  A    between atoms: _199  and  _200
REMARK   88  A    between atoms: _199  and  _202
REMARK   89  A    between atoms: _204  and  _206
REMARK   90  A    between atoms: _206  and  _207
REMARK   91  A    between atoms: _206  and  _209
REMARK   92  A    between atoms: _209  and  _210
REMARK   93  A    between atoms: _210  and  _211
REMARK   94  A    between atoms: _211  and  _212
REMARK   95  A    between atoms: _221  and  _223
REMARK   96  A    between atoms: _223  and  _224
REMARK   97  A    between atoms: _223  and  _226
REMARK   98  A    between atoms: _226  and  _227
REMARK   99  A    between atoms: _227  and  _228
REMARK  100  A    between atoms: _228  and  _229
REMARK  101  A    between atoms: _229  and  _230
REMARK  102  A    between atoms: _234  and  _236
REMARK  103  A    between atoms: _236  and  _237
REMARK  104  A    between atoms: _236  and  _239
REMARK  105  A    between atoms: _239  and  _240
REMARK  106  A    between atoms: _245  and  _247
REMARK  107  A    between atoms: _247  and  _248
REMARK  108  A    between atoms: _247  and  _250
REMARK  109  A    between atoms: _250  and  _251
REMARK  110  A    between atoms: _254  and  _256
REMARK  111  A    between atoms: _256  and  _257
REMARK  112  A    between atoms: _260  and  _262
REMARK  113  A    between atoms: _262  and  _263
REMARK  114  A    between atoms: _262  and  _265
REMARK  115  A    between atoms: _268  and  _270
REMARK  116  A    between atoms: _270  and  _271
REMARK  117  A    between atoms: _270  and  _273
REMARK  118  A    between atoms: _273  and  _274
REMARK  119  A    between atoms: _279  and  _281
REMARK  120  A    between atoms: _281  and  _282
REMARK  121  A    between atoms: _281  and  _284
REMARK  122  A    between atoms: _284  and  _285
REMARK  123  A    between atoms: _291  and  _293
REMARK  124  A    between atoms: _293  and  _294
REMARK  125  A    between atoms: _293  and  _296
REMARK  126  A    between atoms: _296  and  _297
REMARK  127  A    between atoms: _300  and  _302
REMARK  128  A    between atoms: _302  and  _303
REMARK  129  A    between atoms: _306  and  _308
REMARK  130  A    between atoms: _308  and  _309
REMARK  131  A    between atoms: _308  and  _311
REMARK  132  A    between atoms: _311  and  _312
REMARK  133  A    between atoms: _314  and  _316
REMARK  134  A    between atoms: _316  and  _317
REMARK  135  A    between atoms: _316  and  _319
REMARK                            x       y       z     vdW  Elec       q    Type
REMARK                         _______ _______ _______ _____ _____    ______ ____
ROOT
ATOM      1  O   HOH     1      23.794   4.973   3.361  0.00  0.00    +0.000 OA
ENDROOT
TORSDOF 0
REMARK  Name = ../refined-set-2016/1n3z/1n3z_pocket.pdb
REMARK  135 active torsions:
REMARK  status: ('A' for Active; 'I' for Inactive)
REMARK    1  A    between atoms: _1  and  _3
REMARK    2  A    between atoms: _3  and  _4
REMARK    3  A    between atoms: _3  and  _6
REMARK    4  A    between atoms: _6  and  _7
REMARK    5  A    between atoms: _7  and  _8
REMARK    6  A    between atoms: _8  and  _9
REMARK    7  A    between atoms: _9  and  _10
REMARK    8  A    between atoms: _14  and  _16
REMARK    9  A    between atoms: _16  and  _17
REMARK   10  A    between atoms: _16  and  _19
REMARK   11  A    between atoms: _19  and  _20
REMARK   12  A    between atoms: _26  and  _28
REMARK   13  A    between atoms: _28  and  _29
REMARK   14  A    between atoms: _28  and  _31
REMARK   15  A    between atoms: _31  and  _32
REMARK   16  A    between atoms: _32  and  _33
REMARK   17  A    between atoms: _33  and  _34
REMARK   18  A    between atoms: _43  and  _45
REMARK   19  A    between atoms: _45  and  _46
REMARK   20  A    between atoms: _45  and  _48
REMARK   21  A    between atoms: _48  and  _49
REMARK   22  A    between atoms: _49  and  _50
REMARK   23  A    between atoms: _55  and  _57
REMARK   24  A    between atoms: _57  and  _58
REMARK   25  A    between atoms: _57  and  _60
REMARK   26  A    between atoms: _60  and  _61
REMARK   27  A    between atoms: _66  and  _68
REMARK   28  A    between atoms: _68  and  _69
REMARK   29  A    between atoms: _68  and  _71
REMARK   30  A    between atoms: _71  and  _72
REMARK   31  A    between atoms: _72  and  _73
REMARK   32  A    between atoms: _75  and  _77
REMARK   33  A    between atoms: _77  and  _78
REMARK   34  A    between atoms: _77  and  _80
REMARK   35  A    between atoms: _80  and  _81
REMARK   36  A    between atoms: _81  and  _82
REMARK   37  A    between atoms: _84  and  _86
REMARK   38  A    between atoms: _86  and  _87
REMARK   39  A    between atoms: _86  and  _89
REMARK   40  A    between atoms: _89  and  _90
REMARK   41  A    between atoms: _90  and  _91
REMARK   42  A    between atoms: _91  and  _92
REMARK   43  A    between atoms: _92  and  _93
REMARK   44  A    between atoms: _97  and  _99
REMARK   45  A    between atoms: _99  and  _100
REMARK   46  A    between atoms: _99  and  _102
REMARK   47  A    between atoms: _102  and  _103
REMARK   48  A    between atoms: _103  and  _104
REMARK   49  A    between atoms: _104  and  _105
REMARK   50  A    between atoms: _105  and  _106
REMARK   51  A    between atoms: _111  and  _112
REMARK   52  A    between atoms: _117  and  _119
REMARK   53  A    between atoms: _119  and  _120
REMARK   54  A    between atoms: _119  and  _122
REMARK   55  A    between atoms: _125  and  _127
REMARK   56  A    between atoms: _127  and  _128
REMARK   57  A    between atoms: _127  and  _130
REMARK   58  A    between atoms: _130  and  _131
REMARK   59  A    between atoms: _136  and  _138
REMARK   60  A    between atoms: _138  and  _139
REMARK   61  A    between atoms: _138  and  _141
REMARK   62  A    between atoms: _141  and  _142
REMARK   63  A    between atoms: _145  and  _147
REMARK   64  A    between atoms: _147  and  _148
REMARK   65  A    between atoms: _147  and  _150
REMARK   66  A    between atoms: _150  and  _151
REMARK   67  A    between atoms: _157  and  _159
REMARK   68  A    between atoms: _159  and  _160
REMARK   69  A    between atoms: _159  and  _162
REMARK   70  A    between atoms: _162  and  _163
REMARK   71  A    between atoms: _163  and  _164
REMARK   72  A    between atoms: _164  and  _165
REMARK   73  A    between atoms: _165  and  _166
REMARK   74  A    between atoms: _170  and  _172
REMARK   75  A    between atoms: _172  and  _173
REMARK   76  A    between atoms: _172  and  _175
REMARK   77  A    between atoms: _175  and  _176
REMARK   78  A    between atoms: _179  and  _181
REMARK   79  A    between atoms: _181  and  _182
REMARK   80  A    between atoms: _181  and  _184
REMARK   81  A    between atoms: _184  and  _185
REMARK   82  A    between atoms: _188  and  _190
REMARK   83  A    between atoms: _190  and  _191
REMARK   84  A    between atoms: _190  and  _193
REMARK   85  A    between atoms: _193  and  _194
REMARK   86  A    between atoms: _197  and  _199
REMARK   87  A    between atoms: _199  and  _200
REMARK   88  A    between atoms: _199  and  _202
REMARK   89  A    between atoms: _204  and  _206
REMARK   90  A    between atoms: _206  and  _207
REMARK   91  A    between atoms: _206  and  _209
REMARK   92  A    between atoms: _209  and  _210
REMARK   93  A    between atoms: _210  and  _211
REMARK   94  A    between atoms: _211  and  _212
REMARK   95  A    between atoms: _221  and  _223
REMARK   96  A    between atoms: _223  and  _224
REMARK   97  A    between atoms: _223  and  _226
REMARK   98  A    between atoms: _226  and  _227
REMARK   99  A    between atoms: _227  and  _228
REMARK  100  A    between atoms: _228  and  _229
REMARK  101  A    between atoms: _229  and  _230
REMARK  102  A    between atoms: _234  and  _236
REMARK  103  A    between atoms: _236  and  _237
REMARK  104  A    between atoms: _236  and  _239
REMARK  105  A    between atoms: _239  and  _240
REMARK  106  A    between atoms: _245  and  _247
REMARK  107  A    between atoms: _247  and  _248
REMARK  108  A    between atoms: _247  and  _250
REMARK  109  A    between atoms: _250  and  _251
REMARK  110  A    between atoms: _254  and  _256
REMARK  111  A    between atoms: _256  and  _257
REMARK  112  A    between atoms: _260  and  _262
REMARK  113  A    between atoms: _262  and  _263
REMARK  114  A    between atoms: _262  and  _265
REMARK  115  A    between atoms: _268  and  _270
REMARK  116  A    between atoms: _270  and  _271
REMARK  117  A    between atoms: _270  and  _273
REMARK  118  A    between atoms: _273  and  _274
REMARK  119  A    between atoms: _279  and  _281
REMARK  120  A    between atoms: _281  and  _282
REMARK  121  A    between atoms: _281  and  _284
REMARK  122  A    between atoms: _284  and  _285
REMARK  123  A    between atoms: _291  and  _293
REMARK  124  A    between atoms: _293  and  _294
REMARK  125  A    between atoms: _293  and  _296
REMARK  126  A    between atoms: _296  and  _297
REMARK  127  A    between atoms: _300  and  _302
REMARK  128  A    between atoms: _302  and  _303
REMARK  129  A    between atoms: _306  and  _308
REMARK  130  A    between atoms: _308  and  _309
REMARK  131  A    between atoms: _308  and  _311
REMARK  132  A    between atoms: _311  and  _312
REMARK  133  A    between atoms: _314  and  _316
REMARK  134  A    between atoms: _316  and  _317
REMARK  135  A    between atoms: _316  and  _319
REMARK                            x       y       z     vdW  Elec       q    Type
REMARK                         _______ _______ _______ _____ _____    ______ ____
ROOT
ATOM      1  O   HOH     1      23.484   6.477   6.132  0.00  0.00    +0.000 OA
ENDROOT
TORSDOF 0
REMARK  Name = ../refined-set-2016/1n3z/1n3z_pocket.pdb
REMARK  135 active torsions:
REMARK  status: ('A' for Active; 'I' for Inactive)
REMARK    1  A    between atoms: _1  and  _3
REMARK    2  A    between atoms: _3  and  _4
REMARK    3  A    between atoms: _3  and  _6
REMARK    4  A    between atoms: _6  and  _7
REMARK    5  A    between atoms: _7  and  _8
REMARK    6  A    between atoms: _8  and  _9
REMARK    7  A    between atoms: _9  and  _10
REMARK    8  A    between atoms: _14  and  _16
REMARK    9  A    between atoms: _16  and  _17
REMARK   10  A    between atoms: _16  and  _19
REMARK   11  A    between atoms: _19  and  _20
REMARK   12  A    between atoms: _26  and  _28
REMARK   13  A    between atoms: _28  and  _29
REMARK   14  A    between atoms: _28  and  _31
REMARK   15  A    between atoms: _31  and  _32
REMARK   16  A    between atoms: _32  and  _33
REMARK   17  A    between atoms: _33  and  _34
REMARK   18  A    between atoms: _43  and  _45
REMARK   19  A    between atoms: _45  and  _46
REMARK   20  A    between atoms: _45  and  _48
REMARK   21  A    between atoms: _48  and  _49
REMARK   22  A    between atoms: _49  and  _50
REMARK   23  A    between atoms: _55  and  _57
REMARK   24  A    between atoms: _57  and  _58
REMARK   25  A    between atoms: _57  and  _60
REMARK   26  A    between atoms: _60  and  _61
REMARK   27  A    between atoms: _66  and  _68
REMARK   28  A    between atoms: _68  and  _69
REMARK   29  A    between atoms: _68  and  _71
REMARK   30  A    between atoms: _71  and  _72
REMARK   31  A    between atoms: _72  and  _73
REMARK   32  A    between atoms: _75  and  _77
REMARK   33  A    between atoms: _77  and  _78
REMARK   34  A    between atoms: _77  and  _80
REMARK   35  A    between atoms: _80  and  _81
REMARK   36  A    between atoms: _81  and  _82
REMARK   37  A    between atoms: _84  and  _86
REMARK   38  A    between atoms: _86  and  _87
REMARK   39  A    between atoms: _86  and  _89
REMARK   40  A    between atoms: _89  and  _90
REMARK   41  A    between atoms: _90  and  _91
REMARK   42  A    between atoms: _91  and  _92
REMARK   43  A    between atoms: _92  and  _93
REMARK   44  A    between atoms: _97  and  _99
REMARK   45  A    between atoms: _99  and  _100
REMARK   46  A    between atoms: _99  and  _102
REMARK   47  A    between atoms: _102  and  _103
REMARK   48  A    between atoms: _103  and  _104
REMARK   49  A    between atoms: _104  and  _105
REMARK   50  A    between atoms: _105  and  _106
REMARK   51  A    between atoms: _111  and  _112
REMARK   52  A    between atoms: _117  and  _119
REMARK   53  A    between atoms: _119  and  _120
REMARK   54  A    between atoms: _119  and  _122
REMARK   55  A    between atoms: _125  and  _127
REMARK   56  A    between atoms: _127  and  _128
REMARK   57  A    between atoms: _127  and  _130
REMARK   58  A    between atoms: _130  and  _131
REMARK   59  A    between atoms: _136  and  _138
REMARK   60  A    between atoms: _138  and  _139
REMARK   61  A    between atoms: _138  and  _141
REMARK   62  A    between atoms: _141  and  _142
REMARK   63  A    between atoms: _145  and  _147
REMARK   64  A    between atoms: _147  and  _148
REMARK   65  A    between atoms: _147  and  _150
REMARK   66  A    between atoms: _150  and  _151
REMARK   67  A    between atoms: _157  and  _159
REMARK   68  A    between atoms: _159  and  _160
REMARK   69  A    between atoms: _159  and  _162
REMARK   70  A    between atoms: _162  and  _163
REMARK   71  A    between atoms: _163  and  _164
REMARK   72  A    between atoms: _164  and  _165
REMARK   73  A    between atoms: _165  and  _166
REMARK   74  A    between atoms: _170  and  _172
REMARK   75  A    between atoms: _172  and  _173
REMARK   76  A    between atoms: _172  and  _175
REMARK   77  A    between atoms: _175  and  _176
REMARK   78  A    between atoms: _179  and  _181
REMARK   79  A    between atoms: _181  and  _182
REMARK   80  A    between atoms: _181  and  _184
REMARK   81  A    between atoms: _184  and  _185
REMARK   82  A    between atoms: _188  and  _190
REMARK   83  A    between atoms: _190  and  _191
REMARK   84  A    between atoms: _190  and  _193
REMARK   85  A    between atoms: _193  and  _194
REMARK   86  A    between atoms: _197  and  _199
REMARK   87  A    between atoms: _199  and  _200
REMARK   88  A    between atoms: _199  and  _202
REMARK   89  A    between atoms: _204  and  _206
REMARK   90  A    between atoms: _206  and  _207
REMARK   91  A    between atoms: _206  and  _209
REMARK   92  A    between atoms: _209  and  _210
REMARK   93  A    between atoms: _210  and  _211
REMARK   94  A    between atoms: _211  and  _212
REMARK   95  A    between atoms: _221  and  _223
REMARK   96  A    between atoms: _223  and  _224
REMARK   97  A    between atoms: _223  and  _226
REMARK   98  A    between atoms: _226  and  _227
REMARK   99  A    between atoms: _227  and  _228
REMARK  100  A    between atoms: _228  and  _229
REMARK  101  A    between atoms: _229  and  _230
REMARK  102  A    between atoms: _234  and  _236
REMARK  103  A    between atoms: _236  and  _237
REMARK  104  A    between atoms: _236  and  _239
REMARK  105  A    between atoms: _239  and  _240
REMARK  106  A    between atoms: _245  and  _247
REMARK  107  A    between atoms: _247  and  _248
REMARK  108  A    between atoms: _247  and  _250
REMARK  109  A    between atoms: _250  and  _251
REMARK  110  A    between atoms: _254  and  _256
REMARK  111  A    between atoms: _256  and  _257
REMARK  112  A    between atoms: _260  and  _262
REMARK  113  A    between atoms: _262  and  _263
REMARK  114  A    between atoms: _262  and  _265
REMARK  115  A    between atoms: _268  and  _270
REMARK  116  A    between atoms: _270  and  _271
REMARK  117  A    between atoms: _270  and  _273
REMARK  118  A    between atoms: _273  and  _274
REMARK  119  A    between atoms: _279  and  _281
REMARK  120  A    between atoms: _281  and  _282
REMARK  121  A    between atoms: _281  and  _284
REMARK  122  A    between atoms: _284  and  _285
REMARK  123  A    between atoms: _291  and  _293
REMARK  124  A    between atoms: _293  and  _294
REMARK  125  A    between atoms: _293  and  _296
REMARK  126  A    between atoms: _296  and  _297
REMARK  127  A    between atoms: _300  and  _302
REMARK  128  A    between atoms: _302  and  _303
REMARK  129  A    between atoms: _306  and  _308
REMARK  130  A    between atoms: _308  and  _309
REMARK  131  A    between atoms: _308  and  _311
REMARK  132  A    between atoms: _311  and  _312
REMARK  133  A    between atoms: _314  and  _316
REMARK  134  A    between atoms: _316  and  _317
REMARK  135  A    between atoms: _316  and  _319
REMARK                            x       y       z     vdW  Elec       q    Type
REMARK                         _______ _______ _______ _____ _____    ______ ____
ROOT
ATOM      1  O   HOH     1      28.794   3.696   8.074  0.00  0.00    +0.000 OA
ENDROOT
TORSDOF 0
REMARK  Name = ../refined-set-2016/1n3z/1n3z_pocket.pdb
REMARK  135 active torsions:
REMARK  status: ('A' for Active; 'I' for Inactive)
REMARK    1  A    between atoms: _1  and  _3
REMARK    2  A    between atoms: _3  and  _4
REMARK    3  A    between atoms: _3  and  _6
REMARK    4  A    between atoms: _6  and  _7
REMARK    5  A    between atoms: _7  and  _8
REMARK    6  A    between atoms: _8  and  _9
REMARK    7  A    between atoms: _9  and  _10
REMARK    8  A    between atoms: _14  and  _16
REMARK    9  A    between atoms: _16  and  _17
REMARK   10  A    between atoms: _16  and  _19
REMARK   11  A    between atoms: _19  and  _20
REMARK   12  A    between atoms: _26  and  _28
REMARK   13  A    between atoms: _28  and  _29
REMARK   14  A    between atoms: _28  and  _31
REMARK   15  A    between atoms: _31  and  _32
REMARK   16  A    between atoms: _32  and  _33
REMARK   17  A    between atoms: _33  and  _34
REMARK   18  A    between atoms: _43  and  _45
REMARK   19  A    between atoms: _45  and  _46
REMARK   20  A    between atoms: _45  and  _48
REMARK   21  A    between atoms: _48  and  _49
REMARK   22  A    between atoms: _49  and  _50
REMARK   23  A    between atoms: _55  and  _57
REMARK   24  A    between atoms: _57  and  _58
REMARK   25  A    between atoms: _57  and  _60
REMARK   26  A    between atoms: _60  and  _61
REMARK   27  A    between atoms: _66  and  _68
REMARK   28  A    between atoms: _68  and  _69
REMARK   29  A    between atoms: _68  and  _71
REMARK   30  A    between atoms: _71  and  _72
REMARK   31  A    between atoms: _72  and  _73
REMARK   32  A    between atoms: _75  and  _77
REMARK   33  A    between atoms: _77  and  _78
REMARK   34  A    between atoms: _77  and  _80
REMARK   35  A    between atoms: _80  and  _81
REMARK   36  A    between atoms: _81  and  _82
REMARK   37  A    between atoms: _84  and  _86
REMARK   38  A    between atoms: _86  and  _87
REMARK   39  A    between atoms: _86  and  _89
REMARK   40  A    between atoms: _89  and  _90
REMARK   41  A    between atoms: _90  and  _91
REMARK   42  A    between atoms: _91  and  _92
REMARK   43  A    between atoms: _92  and  _93
REMARK   44  A    between atoms: _97  and  _99
REMARK   45  A    between atoms: _99  and  _100
REMARK   46  A    between atoms: _99  and  _102
REMARK   47  A    between atoms: _102  and  _103
REMARK   48  A    between atoms: _103  and  _104
REMARK   49  A    between atoms: _104  and  _105
REMARK   50  A    between atoms: _105  and  _106
REMARK   51  A    between atoms: _111  and  _112
REMARK   52  A    between atoms: _117  and  _119
REMARK   53  A    between atoms: _119  and  _120
REMARK   54  A    between atoms: _119  and  _122
REMARK   55  A    between atoms: _125  and  _127
REMARK   56  A    between atoms: _127  and  _128
REMARK   57  A    between atoms: _127  and  _130
REMARK   58  A    between atoms: _130  and  _131
REMARK   59  A    between atoms: _136  and  _138
REMARK   60  A    between atoms: _138  and  _139
REMARK   61  A    between atoms: _138  and  _141
REMARK   62  A    between atoms: _141  and  _142
REMARK   63  A    between atoms: _145  and  _147
REMARK   64  A    between atoms: _147  and  _148
REMARK   65  A    between atoms: _147  and  _150
REMARK   66  A    between atoms: _150  and  _151
REMARK   67  A    between atoms: _157  and  _159
REMARK   68  A    between atoms: _159  and  _160
REMARK   69  A    between atoms: _159  and  _162
REMARK   70  A    between atoms: _162  and  _163
REMARK   71  A    between atoms: _163  and  _164
REMARK   72  A    between atoms: _164  and  _165
REMARK   73  A    between atoms: _165  and  _166
REMARK   74  A    between atoms: _170  and  _172
REMARK   75  A    between atoms: _172  and  _173
REMARK   76  A    between atoms: _172  and  _175
REMARK   77  A    between atoms: _175  and  _176
REMARK   78  A    between atoms: _179  and  _181
REMARK   79  A    between atoms: _181  and  _182
REMARK   80  A    between atoms: _181  and  _184
REMARK   81  A    between atoms: _184  and  _185
REMARK   82  A    between atoms: _188  and  _190
REMARK   83  A    between atoms: _190  and  _191
REMARK   84  A    between atoms: _190  and  _193
REMARK   85  A    between atoms: _193  and  _194
REMARK   86  A    between atoms: _197  and  _199
REMARK   87  A    between atoms: _199  and  _200
REMARK   88  A    between atoms: _199  and  _202
REMARK   89  A    between atoms: _204  and  _206
REMARK   90  A    between atoms: _206  and  _207
REMARK   91  A    between atoms: _206  and  _209
REMARK   92  A    between atoms: _209  and  _210
REMARK   93  A    between atoms: _210  and  _211
REMARK   94  A    between atoms: _211  and  _212
REMARK   95  A    between atoms: _221  and  _223
REMARK   96  A    between atoms: _223  and  _224
REMARK   97  A    between atoms: _223  and  _226
REMARK   98  A    between atoms: _226  and  _227
REMARK   99  A    between atoms: _227  and  _228
REMARK  100  A    between atoms: _228  and  _229
REMARK  101  A    between atoms: _229  and  _230
REMARK  102  A    between atoms: _234  and  _236
REMARK  103  A    between atoms: _236  and  _237
REMARK  104  A    between atoms: _236  and  _239
REMARK  105  A    between atoms: _239  and  _240
REMARK  106  A    between atoms: _245  and  _247
REMARK  107  A    between atoms: _247  and  _248
REMARK  108  A    between atoms: _247  and  _250
REMARK  109  A    between atoms: _250  and  _251
REMARK  110  A    between atoms: _254  and  _256
REMARK  111  A    between atoms: _256  and  _257
REMARK  112  A    between atoms: _260  and  _262
REMARK  113  A    between atoms: _262  and  _263
REMARK  114  A    between atoms: _262  and  _265
REMARK  115  A    between atoms: _268  and  _270
REMARK  116  A    between atoms: _270  and  _271
REMARK  117  A    between atoms: _270  and  _273
REMARK  118  A    between atoms: _273  and  _274
REMARK  119  A    between atoms: _279  and  _281
REMARK  120  A    between atoms: _281  and  _282
REMARK  121  A    between atoms: _281  and  _284
REMARK  122  A    between atoms: _284  and  _285
REMARK  123  A    between atoms: _291  and  _293
REMARK  124  A    between atoms: _293  and  _294
REMARK  125  A    between atoms: _293  and  _296
REMARK  126  A    between atoms: _296  and  _297
REMARK  127  A    between atoms: _300  and  _302
REMARK  128  A    between atoms: _302  and  _303
REMARK  129  A    between atoms: _306  and  _308
REMARK  130  A    between atoms: _308  and  _309
REMARK  131  A    between atoms: _308  and  _311
REMARK  132  A    between atoms: _311  and  _312
REMARK  133  A    between atoms: _314  and  _316
REMARK  134  A    between atoms: _316  and  _317
REMARK  135  A    between atoms: _316  and  _319
REMARK                            x       y       z     vdW  Elec       q    Type
REMARK                         _______ _______ _______ _____ _____    ______ ____
ROOT
ATOM      1  O   HOH     1      26.499   9.903   8.755  0.00  0.00    +0.000 OA
ENDROOT
TORSDOF 0
REMARK  Name = ../refined-set-2016/1n3z/1n3z_pocket.pdb
REMARK  135 active torsions:
REMARK  status: ('A' for Active; 'I' for Inactive)
REMARK    1  A    between atoms: _1  and  _3
REMARK    2  A    between atoms: _3  and  _4
REMARK    3  A    between atoms: _3  and  _6
REMARK    4  A    between atoms: _6  and  _7
REMARK    5  A    between atoms: _7  and  _8
REMARK    6  A    between atoms: _8  and  _9
REMARK    7  A    between atoms: _9  and  _10
REMARK    8  A    between atoms: _14  and  _16
REMARK    9  A    between atoms: _16  and  _17
REMARK   10  A    between atoms: _16  and  _19
REMARK   11  A    between atoms: _19  and  _20
REMARK   12  A    between atoms: _26  and  _28
REMARK   13  A    between atoms: _28  and  _29
REMARK   14  A    between atoms: _28  and  _31
REMARK   15  A    between atoms: _31  and  _32
REMARK   16  A    between atoms: _32  and  _33
REMARK   17  A    between atoms: _33  and  _34
REMARK   18  A    between atoms: _43  and  _45
REMARK   19  A    between atoms: _45  and  _46
REMARK   20  A    between atoms: _45  and  _48
REMARK   21  A    between atoms: _48  and  _49
REMARK   22  A    between atoms: _49  and  _50
REMARK   23  A    between atoms: _55  and  _57
REMARK   24  A    between atoms: _57  and  _58
REMARK   25  A    between atoms: _57  and  _60
REMARK   26  A    between atoms: _60  and  _61
REMARK   27  A    between atoms: _66  and  _68
REMARK   28  A    between atoms: _68  and  _69
REMARK   29  A    between atoms: _68  and  _71
REMARK   30  A    between atoms: _71  and  _72
REMARK   31  A    between atoms: _72  and  _73
REMARK   32  A    between atoms: _75  and  _77
REMARK   33  A    between atoms: _77  and  _78
REMARK   34  A    between atoms: _77  and  _80
REMARK   35  A    between atoms: _80  and  _81
REMARK   36  A    between atoms: _81  and  _82
REMARK   37  A    between atoms: _84  and  _86
REMARK   38  A    between atoms: _86  and  _87
REMARK   39  A    between atoms: _86  and  _89
REMARK   40  A    between atoms: _89  and  _90
REMARK   41  A    between atoms: _90  and  _91
REMARK   42  A    between atoms: _91  and  _92
REMARK   43  A    between atoms: _92  and  _93
REMARK   44  A    between atoms: _97  and  _99
REMARK   45  A    between atoms: _99  and  _100
REMARK   46  A    between atoms: _99  and  _102
REMARK   47  A    between atoms: _102  and  _103
REMARK   48  A    between atoms: _103  and  _104
REMARK   49  A    between atoms: _104  and  _105
REMARK   50  A    between atoms: _105  and  _106
REMARK   51  A    between atoms: _111  and  _112
REMARK   52  A    between atoms: _117  and  _119
REMARK   53  A    between atoms: _119  and  _120
REMARK   54  A    between atoms: _119  and  _122
REMARK   55  A    between atoms: _125  and  _127
REMARK   56  A    between atoms: _127  and  _128
REMARK   57  A    between atoms: _127  and  _130
REMARK   58  A    between atoms: _130  and  _131
REMARK   59  A    between atoms: _136  and  _138
REMARK   60  A    between atoms: _138  and  _139
REMARK   61  A    between atoms: _138  and  _141
REMARK   62  A    between atoms: _141  and  _142
REMARK   63  A    between atoms: _145  and  _147
REMARK   64  A    between atoms: _147  and  _148
REMARK   65  A    between atoms: _147  and  _150
REMARK   66  A    between atoms: _150  and  _151
REMARK   67  A    between atoms: _157  and  _159
REMARK   68  A    between atoms: _159  and  _160
REMARK   69  A    between atoms: _159  and  _162
REMARK   70  A    between atoms: _162  and  _163
REMARK   71  A    between atoms: _163  and  _164
REMARK   72  A    between atoms: _164  and  _165
REMARK   73  A    between atoms: _165  and  _166
REMARK   74  A    between atoms: _170  and  _172
REMARK   75  A    between atoms: _172  and  _173
REMARK   76  A    between atoms: _172  and  _175
REMARK   77  A    between atoms: _175  and  _176
REMARK   78  A    between atoms: _179  and  _181
REMARK   79  A    between atoms: _181  and  _182
REMARK   80  A    between atoms: _181  and  _184
REMARK   81  A    between atoms: _184  and  _185
REMARK   82  A    between atoms: _188  and  _190
REMARK   83  A    between atoms: _190  and  _191
REMARK   84  A    between atoms: _190  and  _193
REMARK   85  A    between atoms: _193  and  _194
REMARK   86  A    between atoms: _197  and  _199
REMARK   87  A    between atoms: _199  and  _200
REMARK   88  A    between atoms: _199  and  _202
REMARK   89  A    between atoms: _204  and  _206
REMARK   90  A    between atoms: _206  and  _207
REMARK   91  A    between atoms: _206  and  _209
REMARK   92  A    between atoms: _209  and  _210
REMARK   93  A    between atoms: _210  and  _211
REMARK   94  A    between atoms: _211  and  _212
REMARK   95  A    between atoms: _221  and  _223
REMARK   96  A    between atoms: _223  and  _224
REMARK   97  A    between atoms: _223  and  _226
REMARK   98  A    between atoms: _226  and  _227
REMARK   99  A    between atoms: _227  and  _228
REMARK  100  A    between atoms: _228  and  _229
REMARK  101  A    between atoms: _229  and  _230
REMARK  102  A    between atoms: _234  and  _236
REMARK  103  A    between atoms: _236  and  _237
REMARK  104  A    between atoms: _236  and  _239
REMARK  105  A    between atoms: _239  and  _240
REMARK  106  A    between atoms: _245  and  _247
REMARK  107  A    between atoms: _247  and  _248
REMARK  108  A    between atoms: _247  and  _250
REMARK  109  A    between atoms: _250  and  _251
REMARK  110  A    between atoms: _254  and  _256
REMARK  111  A    between atoms: _256  and  _257
REMARK  112  A    between atoms: _260  and  _262
REMARK  113  A    between atoms: _262  and  _263
REMARK  114  A    between atoms: _262  and  _265
REMARK  115  A    between atoms: _268  and  _270
REMARK  116  A    between atoms: _270  and  _271
REMARK  117  A    between atoms: _270  and  _273
REMARK  118  A    between atoms: _273  and  _274
REMARK  119  A    between atoms: _279  and  _281
REMARK  120  A    between atoms: _281  and  _282
REMARK  121  A    between atoms: _281  and  _284
REMARK  122  A    between atoms: _284  and  _285
REMARK  123  A    between atoms: _291  and  _293
REMARK  124  A    between atoms: _293  and  _294
REMARK  125  A    between atoms: _293  and  _296
REMARK  126  A    between atoms: _296  and  _297
REMARK  127  A    between atoms: _300  and  _302
REMARK  128  A    between atoms: _302  and  _303
REMARK  129  A    between atoms: _306  and  _308
REMARK  130  A    between atoms: _308  and  _309
REMARK  131  A    between atoms: _308  and  _311
REMARK  132  A    between atoms: _311  and  _312
REMARK  133  A    between atoms: _314  and  _316
REMARK  134  A    between atoms: _316  and  _317
REMARK  135  A    between atoms: _316  and  _319
REMARK                            x       y       z     vdW  Elec       q    Type
REMARK                         _______ _______ _______ _____ _____    ______ ____
ROOT
ATOM      1  O   HOH     1      19.949   7.980  15.032  0.00  0.00    +0.000 OA
ENDROOT
TORSDOF 0
REMARK  Name = ../refined-set-2016/1n3z/1n3z_pocket.pdb
REMARK  135 active torsions:
REMARK  status: ('A' for Active; 'I' for Inactive)
REMARK    1  A    between atoms: _1  and  _3
REMARK    2  A    between atoms: _3  and  _4
REMARK    3  A    between atoms: _3  and  _6
REMARK    4  A    between atoms: _6  and  _7
REMARK    5  A    between atoms: _7  and  _8
REMARK    6  A    between atoms: _8  and  _9
REMARK    7  A    between atoms: _9  and  _10
REMARK    8  A    between atoms: _14  and  _16
REMARK    9  A    between atoms: _16  and  _17
REMARK   10  A    between atoms: _16  and  _19
REMARK   11  A    between atoms: _19  and  _20
REMARK   12  A    between atoms: _26  and  _28
REMARK   13  A    between atoms: _28  and  _29
REMARK   14  A    between atoms: _28  and  _31
REMARK   15  A    between atoms: _31  and  _32
REMARK   16  A    between atoms: _32  and  _33
REMARK   17  A    between atoms: _33  and  _34
REMARK   18  A    between atoms: _43  and  _45
REMARK   19  A    between atoms: _45  and  _46
REMARK   20  A    between atoms: _45  and  _48
REMARK   21  A    between atoms: _48  and  _49
REMARK   22  A    between atoms: _49  and  _50
REMARK   23  A    between atoms: _55  and  _57
REMARK   24  A    between atoms: _57  and  _58
REMARK   25  A    between atoms: _57  and  _60
REMARK   26  A    between atoms: _60  and  _61
REMARK   27  A    between atoms: _66  and  _68
REMARK   28  A    between atoms: _68  and  _69
REMARK   29  A    between atoms: _68  and  _71
REMARK   30  A    between atoms: _71  and  _72
REMARK   31  A    between atoms: _72  and  _73
REMARK   32  A    between atoms: _75  and  _77
REMARK   33  A    between atoms: _77  and  _78
REMARK   34  A    between atoms: _77  and  _80
REMARK   35  A    between atoms: _80  and  _81
REMARK   36  A    between atoms: _81  and  _82
REMARK   37  A    between atoms: _84  and  _86
REMARK   38  A    between atoms: _86  and  _87
REMARK   39  A    between atoms: _86  and  _89
REMARK   40  A    between atoms: _89  and  _90
REMARK   41  A    between atoms: _90  and  _91
REMARK   42  A    between atoms: _91  and  _92
REMARK   43  A    between atoms: _92  and  _93
REMARK   44  A    between atoms: _97  and  _99
REMARK   45  A    between atoms: _99  and  _100
REMARK   46  A    between atoms: _99  and  _102
REMARK   47  A    between atoms: _102  and  _103
REMARK   48  A    between atoms: _103  and  _104
REMARK   49  A    between atoms: _104  and  _105
REMARK   50  A    between atoms: _105  and  _106
REMARK   51  A    between atoms: _111  and  _112
REMARK   52  A    between atoms: _117  and  _119
REMARK   53  A    between atoms: _119  and  _120
REMARK   54  A    between atoms: _119  and  _122
REMARK   55  A    between atoms: _125  and  _127
REMARK   56  A    between atoms: _127  and  _128
REMARK   57  A    between atoms: _127  and  _130
REMARK   58  A    between atoms: _130  and  _131
REMARK   59  A    between atoms: _136  and  _138
REMARK   60  A    between atoms: _138  and  _139
REMARK   61  A    between atoms: _138  and  _141
REMARK   62  A    between atoms: _141  and  _142
REMARK   63  A    between atoms: _145  and  _147
REMARK   64  A    between atoms: _147  and  _148
REMARK   65  A    between atoms: _147  and  _150
REMARK   66  A    between atoms: _150  and  _151
REMARK   67  A    between atoms: _157  and  _159
REMARK   68  A    between atoms: _159  and  _160
REMARK   69  A    between atoms: _159  and  _162
REMARK   70  A    between atoms: _162  and  _163
REMARK   71  A    between atoms: _163  and  _164
REMARK   72  A    between atoms: _164  and  _165
REMARK   73  A    between atoms: _165  and  _166
REMARK   74  A    between atoms: _170  and  _172
REMARK   75  A    between atoms: _172  and  _173
REMARK   76  A    between atoms: _172  and  _175
REMARK   77  A    between atoms: _175  and  _176
REMARK   78  A    between atoms: _179  and  _181
REMARK   79  A    between atoms: _181  and  _182
REMARK   80  A    between atoms: _181  and  _184
REMARK   81  A    between atoms: _184  and  _185
REMARK   82  A    between atoms: _188  and  _190
REMARK   83  A    between atoms: _190  and  _191
REMARK   84  A    between atoms: _190  and  _193
REMARK   85  A    between atoms: _193  and  _194
REMARK   86  A    between atoms: _197  and  _199
REMARK   87  A    between atoms: _199  and  _200
REMARK   88  A    between atoms: _199  and  _202
REMARK   89  A    between atoms: _204  and  _206
REMARK   90  A    between atoms: _206  and  _207
REMARK   91  A    between atoms: _206  and  _209
REMARK   92  A    between atoms: _209  and  _210
REMARK   93  A    between atoms: _210  and  _211
REMARK   94  A    between atoms: _211  and  _212
REMARK   95  A    between atoms: _221  and  _223
REMARK   96  A    between atoms: _223  and  _224
REMARK   97  A    between atoms: _223  and  _226
REMARK   98  A    between atoms: _226  and  _227
REMARK   99  A    between atoms: _227  and  _228
REMARK  100  A    between atoms: _228  and  _229
REMARK  101  A    between atoms: _229  and  _230
REMARK  102  A    between atoms: _234  and  _236
REMARK  103  A    between atoms: _236  and  _237
REMARK  104  A    between atoms: _236  and  _239
REMARK  105  A    between atoms: _239  and  _240
REMARK  106  A    between atoms: _245  and  _247
REMARK  107  A    between atoms: _247  and  _248
REMARK  108  A    between atoms: _247  and  _250
REMARK  109  A    between atoms: _250  and  _251
REMARK  110  A    between atoms: _254  and  _256
REMARK  111  A    between atoms: _256  and  _257
REMARK  112  A    between atoms: _260  and  _262
REMARK  113  A    between atoms: _262  and  _263
REMARK  114  A    between atoms: _262  and  _265
REMARK  115  A    between atoms: _268  and  _270
REMARK  116  A    between atoms: _270  and  _271
REMARK  117  A    between atoms: _270  and  _273
REMARK  118  A    between atoms: _273  and  _274
REMARK  119  A    between atoms: _279  and  _281
REMARK  120  A    between atoms: _281  and  _282
REMARK  121  A    between atoms: _281  and  _284
REMARK  122  A    between atoms: _284  and  _285
REMARK  123  A    between atoms: _291  and  _293
REMARK  124  A    between atoms: _293  and  _294
REMARK  125  A    between atoms: _293  and  _296
REMARK  126  A    between atoms: _296  and  _297
REMARK  127  A    between atoms: _300  and  _302
REMARK  128  A    between atoms: _302  and  _303
REMARK  129  A    between atoms: _306  and  _308
REMARK  130  A    between atoms: _308  and  _309
REMARK  131  A    between atoms: _308  and  _311
REMARK  132  A    between atoms: _311  and  _312
REMARK  133  A    between atoms: _314  and  _316
REMARK  134  A    between atoms: _316  and  _317
REMARK  135  A    between atoms: _316  and  _319
REMARK                            x       y       z     vdW  Elec       q    Type
REMARK                         _______ _______ _______ _____ _____    ______ ____
ROOT
ATOM      1  O   HOH     1      30.497  10.535   8.552  0.00  0.00    +0.000 OA
ENDROOT
TORSDOF 0
REMARK  Name = ../refined-set-2016/1n3z/1n3z_pocket.pdb
REMARK  135 active torsions:
REMARK  status: ('A' for Active; 'I' for Inactive)
REMARK    1  A    between atoms: _1  and  _3
REMARK    2  A    between atoms: _3  and  _4
REMARK    3  A    between atoms: _3  and  _6
REMARK    4  A    between atoms: _6  and  _7
REMARK    5  A    between atoms: _7  and  _8
REMARK    6  A    between atoms: _8  and  _9
REMARK    7  A    between atoms: _9  and  _10
REMARK    8  A    between atoms: _14  and  _16
REMARK    9  A    between atoms: _16  and  _17
REMARK   10  A    between atoms: _16  and  _19
REMARK   11  A    between atoms: _19  and  _20
REMARK   12  A    between atoms: _26  and  _28
REMARK   13  A    between atoms: _28  and  _29
REMARK   14  A    between atoms: _28  and  _31
REMARK   15  A    between atoms: _31  and  _32
REMARK   16  A    between atoms: _32  and  _33
REMARK   17  A    between atoms: _33  and  _34
REMARK   18  A    between atoms: _43  and  _45
REMARK   19  A    between atoms: _45  and  _46
REMARK   20  A    between atoms: _45  and  _48
REMARK   21  A    between atoms: _48  and  _49
REMARK   22  A    between atoms: _49  and  _50
REMARK   23  A    between atoms: _55  and  _57
REMARK   24  A    between atoms: _57  and  _58
REMARK   25  A    between atoms: _57  and  _60
REMARK   26  A    between atoms: _60  and  _61
REMARK   27  A    between atoms: _66  and  _68
REMARK   28  A    between atoms: _68  and  _69
REMARK   29  A    between atoms: _68  and  _71
REMARK   30  A    between atoms: _71  and  _72
REMARK   31  A    between atoms: _72  and  _73
REMARK   32  A    between atoms: _75  and  _77
REMARK   33  A    between atoms: _77  and  _78
REMARK   34  A    between atoms: _77  and  _80
REMARK   35  A    between atoms: _80  and  _81
REMARK   36  A    between atoms: _81  and  _82
REMARK   37  A    between atoms: _84  and  _86
REMARK   38  A    between atoms: _86  and  _87
REMARK   39  A    between atoms: _86  and  _89
REMARK   40  A    between atoms: _89  and  _90
REMARK   41  A    between atoms: _90  and  _91
REMARK   42  A    between atoms: _91  and  _92
REMARK   43  A    between atoms: _92  and  _93
REMARK   44  A    between atoms: _97  and  _99
REMARK   45  A    between atoms: _99  and  _100
REMARK   46  A    between atoms: _99  and  _102
REMARK   47  A    between atoms: _102  and  _103
REMARK   48  A    between atoms: _103  and  _104
REMARK   49  A    between atoms: _104  and  _105
REMARK   50  A    between atoms: _105  and  _106
REMARK   51  A    between atoms: _111  and  _112
REMARK   52  A    between atoms: _117  and  _119
REMARK   53  A    between atoms: _119  and  _120
REMARK   54  A    between atoms: _119  and  _122
REMARK   55  A    between atoms: _125  and  _127
REMARK   56  A    between atoms: _127  and  _128
REMARK   57  A    between atoms: _127  and  _130
REMARK   58  A    between atoms: _130  and  _131
REMARK   59  A    between atoms: _136  and  _138
REMARK   60  A    between atoms: _138  and  _139
REMARK   61  A    between atoms: _138  and  _141
REMARK   62  A    between atoms: _141  and  _142
REMARK   63  A    between atoms: _145  and  _147
REMARK   64  A    between atoms: _147  and  _148
REMARK   65  A    between atoms: _147  and  _150
REMARK   66  A    between atoms: _150  and  _151
REMARK   67  A    between atoms: _157  and  _159
REMARK   68  A    between atoms: _159  and  _160
REMARK   69  A    between atoms: _159  and  _162
REMARK   70  A    between atoms: _162  and  _163
REMARK   71  A    between atoms: _163  and  _164
REMARK   72  A    between atoms: _164  and  _165
REMARK   73  A    between atoms: _165  and  _166
REMARK   74  A    between atoms: _170  and  _172
REMARK   75  A    between atoms: _172  and  _173
REMARK   76  A    between atoms: _172  and  _175
REMARK   77  A    between atoms: _175  and  _176
REMARK   78  A    between atoms: _179  and  _181
REMARK   79  A    between atoms: _181  and  _182
REMARK   80  A    between atoms: _181  and  _184
REMARK   81  A    between atoms: _184  and  _185
REMARK   82  A    between atoms: _188  and  _190
REMARK   83  A    between atoms: _190  and  _191
REMARK   84  A    between atoms: _190  and  _193
REMARK   85  A    between atoms: _193  and  _194
REMARK   86  A    between atoms: _197  and  _199
REMARK   87  A    between atoms: _199  and  _200
REMARK   88  A    between atoms: _199  and  _202
REMARK   89  A    between atoms: _204  and  _206
REMARK   90  A    between atoms: _206  and  _207
REMARK   91  A    between atoms: _206  and  _209
REMARK   92  A    between atoms: _209  and  _210
REMARK   93  A    between atoms: _210  and  _211
REMARK   94  A    between atoms: _211  and  _212
REMARK   95  A    between atoms: _221  and  _223
REMARK   96  A    between atoms: _223  and  _224
REMARK   97  A    between atoms: _223  and  _226
REMARK   98  A    between atoms: _226  and  _227
REMARK   99  A    between atoms: _227  and  _228
REMARK  100  A    between atoms: _228  and  _229
REMARK  101  A    between atoms: _229  and  _230
REMARK  102  A    between atoms: _234  and  _236
REMARK  103  A    between atoms: _236  and  _237
REMARK  104  A    between atoms: _236  and  _239
REMARK  105  A    between atoms: _239  and  _240
REMARK  106  A    between atoms: _245  and  _247
REMARK  107  A    between atoms: _247  and  _248
REMARK  108  A    between atoms: _247  and  _250
REMARK  109  A    between atoms: _250  and  _251
REMARK  110  A    between atoms: _254  and  _256
REMARK  111  A    between atoms: _256  and  _257
REMARK  112  A    between atoms: _260  and  _262
REMARK  113  A    between atoms: _262  and  _263
REMARK  114  A    between atoms: _262  and  _265
REMARK  115  A    between atoms: _268  and  _270
REMARK  116  A    between atoms: _270  and  _271
REMARK  117  A    between atoms: _270  and  _273
REMARK  118  A    between atoms: _273  and  _274
REMARK  119  A    between atoms: _279  and  _281
REMARK  120  A    between atoms: _281  and  _282
REMARK  121  A    between atoms: _281  and  _284
REMARK  122  A    between atoms: _284  and  _285
REMARK  123  A    between atoms: _291  and  _293
REMARK  124  A    between atoms: _293  and  _294
REMARK  125  A    between atoms: _293  and  _296
REMARK  126  A    between atoms: _296  and  _297
REMARK  127  A    between atoms: _300  and  _302
REMARK  128  A    between atoms: _302  and  _303
REMARK  129  A    between atoms: _306  and  _308
REMARK  130  A    between atoms: _308  and  _309
REMARK  131  A    between atoms: _308  and  _311
REMARK  132  A    between atoms: _311  and  _312
REMARK  133  A    between atoms: _314  and  _316
REMARK  134  A    between atoms: _316  and  _317
REMARK  135  A    between atoms: _316  and  _319
REMARK                            x       y       z     vdW  Elec       q    Type
REMARK                         _______ _______ _______ _____ _____    ______ ____
ROOT
ATOM      1  O   HOH     1      20.167   6.626   7.114  0.00  0.00    +0.000 OA
ENDROOT
TORSDOF 0
REMARK  Name = ../refined-set-2016/1n3z/1n3z_pocket.pdb
REMARK  135 active torsions:
REMARK  status: ('A' for Active; 'I' for Inactive)
REMARK    1  A    between atoms: _1  and  _3
REMARK    2  A    between atoms: _3  and  _4
REMARK    3  A    between atoms: _3  and  _6
REMARK    4  A    between atoms: _6  and  _7
REMARK    5  A    between atoms: _7  and  _8
REMARK    6  A    between atoms: _8  and  _9
REMARK    7  A    between atoms: _9  and  _10
REMARK    8  A    between atoms: _14  and  _16
REMARK    9  A    between atoms: _16  and  _17
REMARK   10  A    between atoms: _16  and  _19
REMARK   11  A    between atoms: _19  and  _20
REMARK   12  A    between atoms: _26  and  _28
REMARK   13  A    between atoms: _28  and  _29
REMARK   14  A    between atoms: _28  and  _31
REMARK   15  A    between atoms: _31  and  _32
REMARK   16  A    between atoms: _32  and  _33
REMARK   17  A    between atoms: _33  and  _34
REMARK   18  A    between atoms: _43  and  _45
REMARK   19  A    between atoms: _45  and  _46
REMARK   20  A    between atoms: _45  and  _48
REMARK   21  A    between atoms: _48  and  _49
REMARK   22  A    between atoms: _49  and  _50
REMARK   23  A    between atoms: _55  and  _57
REMARK   24  A    between atoms: _57  and  _58
REMARK   25  A    between atoms: _57  and  _60
REMARK   26  A    between atoms: _60  and  _61
REMARK   27  A    between atoms: _66  and  _68
REMARK   28  A    between atoms: _68  and  _69
REMARK   29  A    between atoms: _68  and  _71
REMARK   30  A    between atoms: _71  and  _72
REMARK   31  A    between atoms: _72  and  _73
REMARK   32  A    between atoms: _75  and  _77
REMARK   33  A    between atoms: _77  and  _78
REMARK   34  A    between atoms: _77  and  _80
REMARK   35  A    between atoms: _80  and  _81
REMARK   36  A    between atoms: _81  and  _82
REMARK   37  A    between atoms: _84  and  _86
REMARK   38  A    between atoms: _86  and  _87
REMARK   39  A    between atoms: _86  and  _89
REMARK   40  A    between atoms: _89  and  _90
REMARK   41  A    between atoms: _90  and  _91
REMARK   42  A    between atoms: _91  and  _92
REMARK   43  A    between atoms: _92  and  _93
REMARK   44  A    between atoms: _97  and  _99
REMARK   45  A    between atoms: _99  and  _100
REMARK   46  A    between atoms: _99  and  _102
REMARK   47  A    between atoms: _102  and  _103
REMARK   48  A    between atoms: _103  and  _104
REMARK   49  A    between atoms: _104  and  _105
REMARK   50  A    between atoms: _105  and  _106
REMARK   51  A    between atoms: _111  and  _112
REMARK   52  A    between atoms: _117  and  _119
REMARK   53  A    between atoms: _119  and  _120
REMARK   54  A    between atoms: _119  and  _122
REMARK   55  A    between atoms: _125  and  _127
REMARK   56  A    between atoms: _127  and  _128
REMARK   57  A    between atoms: _127  and  _130
REMARK   58  A    between atoms: _130  and  _131
REMARK   59  A    between atoms: _136  and  _138
REMARK   60  A    between atoms: _138  and  _139
REMARK   61  A    between atoms: _138  and  _141
REMARK   62  A    between atoms: _141  and  _142
REMARK   63  A    between atoms: _145  and  _147
REMARK   64  A    between atoms: _147  and  _148
REMARK   65  A    between atoms: _147  and  _150
REMARK   66  A    between atoms: _150  and  _151
REMARK   67  A    between atoms: _157  and  _159
REMARK   68  A    between atoms: _159  and  _160
REMARK   69  A    between atoms: _159  and  _162
REMARK   70  A    between atoms: _162  and  _163
REMARK   71  A    between atoms: _163  and  _164
REMARK   72  A    between atoms: _164  and  _165
REMARK   73  A    between atoms: _165  and  _166
REMARK   74  A    between atoms: _170  and  _172
REMARK   75  A    between atoms: _172  and  _173
REMARK   76  A    between atoms: _172  and  _175
REMARK   77  A    between atoms: _175  and  _176
REMARK   78  A    between atoms: _179  and  _181
REMARK   79  A    between atoms: _181  and  _182
REMARK   80  A    between atoms: _181  and  _184
REMARK   81  A    between atoms: _184  and  _185
REMARK   82  A    between atoms: _188  and  _190
REMARK   83  A    between atoms: _190  and  _191
REMARK   84  A    between atoms: _190  and  _193
REMARK   85  A    between atoms: _193  and  _194
REMARK   86  A    between atoms: _197  and  _199
REMARK   87  A    between atoms: _199  and  _200
REMARK   88  A    between atoms: _199  and  _202
REMARK   89  A    between atoms: _204  and  _206
REMARK   90  A    between atoms: _206  and  _207
REMARK   91  A    between atoms: _206  and  _209
REMARK   92  A    between atoms: _209  and  _210
REMARK   93  A    between atoms: _210  and  _211
REMARK   94  A    between atoms: _211  and  _212
REMARK   95  A    between atoms: _221  and  _223
REMARK   96  A    between atoms: _223  and  _224
REMARK   97  A    between atoms: _223  and  _226
REMARK   98  A    between atoms: _226  and  _227
REMARK   99  A    between atoms: _227  and  _228
REMARK  100  A    between atoms: _228  and  _229
REMARK  101  A    between atoms: _229  and  _230
REMARK  102  A    between atoms: _234  and  _236
REMARK  103  A    between atoms: _236  and  _237
REMARK  104  A    between atoms: _236  and  _239
REMARK  105  A    between atoms: _239  and  _240
REMARK  106  A    between atoms: _245  and  _247
REMARK  107  A    between atoms: _247  and  _248
REMARK  108  A    between atoms: _247  and  _250
REMARK  109  A    between atoms: _250  and  _251
REMARK  110  A    between atoms: _254  and  _256
REMARK  111  A    between atoms: _256  and  _257
REMARK  112  A    between atoms: _260  and  _262
REMARK  113  A    between atoms: _262  and  _263
REMARK  114  A    between atoms: _262  and  _265
REMARK  115  A    between atoms: _268  and  _270
REMARK  116  A    between atoms: _270  and  _271
REMARK  117  A    between atoms: _270  and  _273
REMARK  118  A    between atoms: _273  and  _274
REMARK  119  A    between atoms: _279  and  _281
REMARK  120  A    between atoms: _281  and  _282
REMARK  121  A    between atoms: _281  and  _284
REMARK  122  A    between atoms: _284  and  _285
REMARK  123  A    between atoms: _291  and  _293
REMARK  124  A    between atoms: _293  and  _294
REMARK  125  A    between atoms: _293  and  _296
REMARK  126  A    between atoms: _296  and  _297
REMARK  127  A    between atoms: _300  and  _302
REMARK  128  A    between atoms: _302  and  _303
REMARK  129  A    between atoms: _306  and  _308
REMARK  130  A    between atoms: _308  and  _309
REMARK  131  A    between atoms: _308  and  _311
REMARK  132  A    between atoms: _311  and  _312
REMARK  133  A    between atoms: _314  and  _316
REMARK  134  A    between atoms: _316  and  _317
REMARK  135  A    between atoms: _316  and  _319
REMARK                            x       y       z     vdW  Elec       q    Type
REMARK                         _______ _______ _______ _____ _____    ______ ____
ROOT
ATOM      1  O   HOH     1      19.170   5.477   8.834  0.00  0.00    +0.000 OA
ENDROOT
TORSDOF 0
