REMARK  Name = ../refined-set-2016/3sbi/3sbi_pocket.pdb
REMARK  161 active torsions:
REMARK  status: ('A' for Active; 'I' for Inactive)
REMARK    1  A    between atoms: _1  and  _3
REMARK    2  A    between atoms: _3  and  _4
REMARK    3  A    between atoms: _3  and  _6
REMARK    4  A    between atoms: _6  and  _7
REMARK    5  A    between atoms: _17  and  _19
REMARK    6  A    between atoms: _19  and  _20
REMARK    7  A    between atoms: _19  and  _22
REMARK    8  A    between atoms: _22  and  _23
REMARK    9  A    between atoms: _28  and  _29
REMARK   10  A    between atoms: _31  and  _33
REMARK   11  A    between atoms: _33  and  _34
REMARK   12  A    between atoms: _33  and  _36
REMARK   13  A    between atoms: _36  and  _37
REMARK   14  A    between atoms: _40  and  _41
REMARK   15  A    between atoms: _46  and  _48
REMARK   16  A    between atoms: _48  and  _49
REMARK   17  A    between atoms: _48  and  _51
REMARK   18  A    between atoms: _51  and  _52
REMARK   19  A    between atoms: _57  and  _59
REMARK   20  A    between atoms: _59  and  _60
REMARK   21  A    between atoms: _59  and  _62
REMARK   22  A    between atoms: _62  and  _63
REMARK   23  A    between atoms: _68  and  _70
REMARK   24  A    between atoms: _70  and  _71
REMARK   25  A    between atoms: _70  and  _73
REMARK   26  A    between atoms: _73  and  _74
REMARK   27  A    between atoms: _79  and  _81
REMARK   28  A    between atoms: _81  and  _82
REMARK   29  A    between atoms: _81  and  _84
REMARK   30  A    between atoms: _84  and  _85
REMARK   31  A    between atoms: _88  and  _90
REMARK   32  A    between atoms: _90  and  _91
REMARK   33  A    between atoms: _90  and  _93
REMARK   34  A    between atoms: _93  and  _94
REMARK   35  A    between atoms: _94  and  _95
REMARK   36  A    between atoms: _100  and  _102
REMARK   37  A    between atoms: _102  and  _103
REMARK   38  A    between atoms: _102  and  _105
REMARK   39  A    between atoms: _105  and  _106
REMARK   40  A    between atoms: _112  and  _114
REMARK   41  A    between atoms: _125  and  _128
REMARK   42  A    between atoms: _128  and  _129
REMARK   43  A    between atoms: _137  and  _138
REMARK   44  A    between atoms: _146  and  _148
REMARK   45  A    between atoms: _148  and  _149
REMARK   46  A    between atoms: _148  and  _151
REMARK   47  A    between atoms: _151  and  _152
REMARK   48  A    between atoms: _152  and  _153
REMARK   49  A    between atoms: _156  and  _158
REMARK   50  A    between atoms: _158  and  _159
REMARK   51  A    between atoms: _158  and  _161
REMARK   52  A    between atoms: _161  and  _162
REMARK   53  A    between atoms: _167  and  _169
REMARK   54  A    between atoms: _169  and  _170
REMARK   55  A    between atoms: _169  and  _172
REMARK   56  A    between atoms: _172  and  _173
REMARK   57  A    between atoms: _173  and  _174
REMARK   58  A    between atoms: _177  and  _179
REMARK   59  A    between atoms: _179  and  _180
REMARK   60  A    between atoms: _179  and  _182
REMARK   61  A    between atoms: _182  and  _183
REMARK   62  A    between atoms: _186  and  _188
REMARK   63  A    between atoms: _188  and  _189
REMARK   64  A    between atoms: _188  and  _191
REMARK   65  A    between atoms: _191  and  _192
REMARK   66  A    between atoms: _193  and  ZN_443
REMARK   67  A    between atoms: _197  and  _199
REMARK   68  A    between atoms: _199  and  _200
REMARK   69  A    between atoms: _199  and  _202
REMARK   70  A    between atoms: _202  and  _203
REMARK   71  A    between atoms: _206  and  _208
REMARK   72  A    between atoms: _208  and  _209
REMARK   73  A    between atoms: _208  and  _211
REMARK   74  A    between atoms: _214  and  _216
REMARK   75  A    between atoms: _216  and  _217
REMARK   76  A    between atoms: _216  and  _219
REMARK   77  A    between atoms: _219  and  _220
REMARK   78  A    between atoms: _225  and  _227
REMARK   79  A    between atoms: _227  and  _228
REMARK   80  A    between atoms: _227  and  _230
REMARK   81  A    between atoms: _230  and  _231
REMARK   82  A    between atoms: _237  and  _239
REMARK   83  A    between atoms: _239  and  _240
REMARK   84  A    between atoms: _242  and  _244
REMARK   85  A    between atoms: _244  and  _245
REMARK   86  A    between atoms: _244  and  _247
REMARK   87  A    between atoms: _247  and  _248
REMARK   88  A    between atoms: _248  and  _249
REMARK   89  A    between atoms: _249  and  _250
REMARK   90  A    between atoms: _250  and  _251
REMARK   91  A    between atoms: _255  and  _257
REMARK   92  A    between atoms: _257  and  _258
REMARK   93  A    between atoms: _257  and  _260
REMARK   94  A    between atoms: _263  and  _265
REMARK   95  A    between atoms: _265  and  _266
REMARK   96  A    between atoms: _265  and  _268
REMARK   97  A    between atoms: _268  and  _269
REMARK   98  A    between atoms: _269  and  _270
REMARK   99  A    between atoms: _275  and  _277
REMARK  100  A    between atoms: _277  and  _278
REMARK  101  A    between atoms: _277  and  _280
REMARK  102  A    between atoms: _280  and  _281
REMARK  103  A    between atoms: _284  and  _286
REMARK  104  A    between atoms: _286  and  _287
REMARK  105  A    between atoms: _290  and  _292
REMARK  106  A    between atoms: _292  and  _293
REMARK  107  A    between atoms: _292  and  _295
REMARK  108  A    between atoms: _298  and  _300
REMARK  109  A    between atoms: _300  and  _301
REMARK  110  A    between atoms: _300  and  _303
REMARK  111  A    between atoms: _303  and  _304
REMARK  112  A    between atoms: _307  and  _309
REMARK  113  A    between atoms: _309  and  _310
REMARK  114  A    between atoms: _312  and  _314
REMARK  115  A    between atoms: _314  and  _315
REMARK  116  A    between atoms: _317  and  _319
REMARK  117  A    between atoms: _319  and  _320
REMARK  118  A    between atoms: _319  and  _322
REMARK  119  A    between atoms: _322  and  _323
REMARK  120  A    between atoms: _325  and  _327
REMARK  121  A    between atoms: _327  and  _328
REMARK  122  A    between atoms: _327  and  _330
REMARK  123  A    between atoms: _330  and  _331
REMARK  124  A    between atoms: _334  and  _336
REMARK  125  A    between atoms: _336  and  _337
REMARK  126  A    between atoms: _336  and  _339
REMARK  127  A    between atoms: _339  and  _340
REMARK  128  A    between atoms: _343  and  _345
REMARK  129  A    between atoms: _345  and  _346
REMARK  130  A    between atoms: _345  and  _348
REMARK  131  A    between atoms: _348  and  _349
REMARK  132  A    between atoms: _353  and  _354
REMARK  133  A    between atoms: _360  and  _361
REMARK  134  A    between atoms: _366  and  _368
REMARK  135  A    between atoms: _368  and  _369
REMARK  136  A    between atoms: _368  and  _371
REMARK  137  A    between atoms: _371  and  _372
REMARK  138  A    between atoms: _375  and  _377
REMARK  139  A    between atoms: _377  and  _378
REMARK  140  A    between atoms: _377  and  _380
REMARK  141  A    between atoms: _380  and  _381
REMARK  142  A    between atoms: _384  and  _386
REMARK  143  A    between atoms: _386  and  _387
REMARK  144  A    between atoms: _386  and  _389
REMARK  145  A    between atoms: _391  and  _393
REMARK  146  A    between atoms: _393  and  _394
REMARK  147  A    between atoms: _393  and  _396
REMARK  148  A    between atoms: _399  and  _401
REMARK  149  A    between atoms: _401  and  _402
REMARK  150  A    between atoms: _401  and  _404
REMARK  151  A    between atoms: _404  and  _405
REMARK  152  A    between atoms: _415  and  _417
REMARK  153  A    between atoms: _417  and  _418
REMARK  154  A    between atoms: _417  and  _420
REMARK  155  A    between atoms: _420  and  _421
REMARK  156  A    between atoms: _426  and  _428
REMARK  157  A    between atoms: _428  and  _429
REMARK  158  A    between atoms: _428  and  _431
REMARK  159  A    between atoms: _431  and  _432
REMARK  160  A    between atoms: _432  and  _433
REMARK  161  A    between atoms: _433  and  _434
REMARK                            x       y       z     vdW  Elec       q    Type
REMARK                         _______ _______ _______ _____ _____    ______ ____
ROOT
ATOM      1  CG  TRP A   1       5.946   0.035  12.118  0.00  0.00    -0.002 A 
ATOM      2  CD2 TRP A   1       4.594  -0.400  12.050  0.00  0.00    +0.013 A 
ATOM      3  CE3 TRP A   1       3.938  -1.652  12.284  0.00  0.00    +0.001 A 
ATOM      4  CZ3 TRP A   1       2.517  -1.702  12.082  0.00  0.00    +0.000 A 
ATOM      5  CH2 TRP A   1       1.800  -0.526  11.695  0.00  0.00    +0.001 A 
ATOM      6  CZ2 TRP A   1       2.413   0.656  11.519  0.00  0.00    +0.017 A 
ATOM      7  CE2 TRP A   1       3.811   0.727  11.663  0.00  0.00    +0.056 A 
ATOM      8  NE1 TRP A   1       4.669   1.807  11.593  0.00  0.00    -0.352 N 
ATOM      9  HE1 TRP A   1       4.385   2.789  11.401  0.00  0.00    +0.166 HD
ATOM     10  CD1 TRP A   1       5.938   1.387  11.813  0.00  0.00    +0.068 A 
ENDROOT
BRANCH   1  11
ATOM     11  CB  TRP A   1       7.120  -0.813  12.486  0.00  0.00    +0.053 C 
BRANCH  11  12
ATOM     12  CA  TRP A   1       7.806  -1.574  11.323  0.00  0.00    +0.137 C 
BRANCH  12  13
ATOM     13  N   TRP A   1       8.591  -0.593  10.538  0.00  0.00    -0.239 NA
ATOM     14  H   TRP A   1       8.498   0.423  10.738  0.00  0.00    +0.142 HD
ENDBRANCH  12  13
BRANCH  12  15
ATOM     15  C   TRP A   1       6.797  -2.307  10.475  0.00  0.00    +0.224 C 
ATOM     16  O   TRP A   1       6.291  -1.811   9.452  0.00  0.00    -0.287 OA
ENDBRANCH  12  15
ENDBRANCH  11  12
ENDBRANCH   1  11
TORSDOF 4
REMARK  Name = ../refined-set-2016/3sbi/3sbi_pocket.pdb
REMARK  161 active torsions:
REMARK  status: ('A' for Active; 'I' for Inactive)
REMARK    1  A    between atoms: _1  and  _3
REMARK    2  A    between atoms: _3  and  _4
REMARK    3  A    between atoms: _3  and  _6
REMARK    4  A    between atoms: _6  and  _7
REMARK    5  A    between atoms: _17  and  _19
REMARK    6  A    between atoms: _19  and  _20
REMARK    7  A    between atoms: _19  and  _22
REMARK    8  A    between atoms: _22  and  _23
REMARK    9  A    between atoms: _28  and  _29
REMARK   10  A    between atoms: _31  and  _33
REMARK   11  A    between atoms: _33  and  _34
REMARK   12  A    between atoms: _33  and  _36
REMARK   13  A    between atoms: _36  and  _37
REMARK   14  A    between atoms: _40  and  _41
REMARK   15  A    between atoms: _46  and  _48
REMARK   16  A    between atoms: _48  and  _49
REMARK   17  A    between atoms: _48  and  _51
REMARK   18  A    between atoms: _51  and  _52
REMARK   19  A    between atoms: _57  and  _59
REMARK   20  A    between atoms: _59  and  _60
REMARK   21  A    between atoms: _59  and  _62
REMARK   22  A    between atoms: _62  and  _63
REMARK   23  A    between atoms: _68  and  _70
REMARK   24  A    between atoms: _70  and  _71
REMARK   25  A    between atoms: _70  and  _73
REMARK   26  A    between atoms: _73  and  _74
REMARK   27  A    between atoms: _79  and  _81
REMARK   28  A    between atoms: _81  and  _82
REMARK   29  A    between atoms: _81  and  _84
REMARK   30  A    between atoms: _84  and  _85
REMARK   31  A    between atoms: _88  and  _90
REMARK   32  A    between atoms: _90  and  _91
REMARK   33  A    between atoms: _90  and  _93
REMARK   34  A    between atoms: _93  and  _94
REMARK   35  A    between atoms: _94  and  _95
REMARK   36  A    between atoms: _100  and  _102
REMARK   37  A    between atoms: _102  and  _103
REMARK   38  A    between atoms: _102  and  _105
REMARK   39  A    between atoms: _105  and  _106
REMARK   40  A    between atoms: _112  and  _114
REMARK   41  A    between atoms: _125  and  _128
REMARK   42  A    between atoms: _128  and  _129
REMARK   43  A    between atoms: _137  and  _138
REMARK   44  A    between atoms: _146  and  _148
REMARK   45  A    between atoms: _148  and  _149
REMARK   46  A    between atoms: _148  and  _151
REMARK   47  A    between atoms: _151  and  _152
REMARK   48  A    between atoms: _152  and  _153
REMARK   49  A    between atoms: _156  and  _158
REMARK   50  A    between atoms: _158  and  _159
REMARK   51  A    between atoms: _158  and  _161
REMARK   52  A    between atoms: _161  and  _162
REMARK   53  A    between atoms: _167  and  _169
REMARK   54  A    between atoms: _169  and  _170
REMARK   55  A    between atoms: _169  and  _172
REMARK   56  A    between atoms: _172  and  _173
REMARK   57  A    between atoms: _173  and  _174
REMARK   58  A    between atoms: _177  and  _179
REMARK   59  A    between atoms: _179  and  _180
REMARK   60  A    between atoms: _179  and  _182
REMARK   61  A    between atoms: _182  and  _183
REMARK   62  A    between atoms: _186  and  _188
REMARK   63  A    between atoms: _188  and  _189
REMARK   64  A    between atoms: _188  and  _191
REMARK   65  A    between atoms: _191  and  _192
REMARK   66  A    between atoms: _193  and  ZN_443
REMARK   67  A    between atoms: _197  and  _199
REMARK   68  A    between atoms: _199  and  _200
REMARK   69  A    between atoms: _199  and  _202
REMARK   70  A    between atoms: _202  and  _203
REMARK   71  A    between atoms: _206  and  _208
REMARK   72  A    between atoms: _208  and  _209
REMARK   73  A    between atoms: _208  and  _211
REMARK   74  A    between atoms: _214  and  _216
REMARK   75  A    between atoms: _216  and  _217
REMARK   76  A    between atoms: _216  and  _219
REMARK   77  A    between atoms: _219  and  _220
REMARK   78  A    between atoms: _225  and  _227
REMARK   79  A    between atoms: _227  and  _228
REMARK   80  A    between atoms: _227  and  _230
REMARK   81  A    between atoms: _230  and  _231
REMARK   82  A    between atoms: _237  and  _239
REMARK   83  A    between atoms: _239  and  _240
REMARK   84  A    between atoms: _242  and  _244
REMARK   85  A    between atoms: _244  and  _245
REMARK   86  A    between atoms: _244  and  _247
REMARK   87  A    between atoms: _247  and  _248
REMARK   88  A    between atoms: _248  and  _249
REMARK   89  A    between atoms: _249  and  _250
REMARK   90  A    between atoms: _250  and  _251
REMARK   91  A    between atoms: _255  and  _257
REMARK   92  A    between atoms: _257  and  _258
REMARK   93  A    between atoms: _257  and  _260
REMARK   94  A    between atoms: _263  and  _265
REMARK   95  A    between atoms: _265  and  _266
REMARK   96  A    between atoms: _265  and  _268
REMARK   97  A    between atoms: _268  and  _269
REMARK   98  A    between atoms: _269  and  _270
REMARK   99  A    between atoms: _275  and  _277
REMARK  100  A    between atoms: _277  and  _278
REMARK  101  A    between atoms: _277  and  _280
REMARK  102  A    between atoms: _280  and  _281
REMARK  103  A    between atoms: _284  and  _286
REMARK  104  A    between atoms: _286  and  _287
REMARK  105  A    between atoms: _290  and  _292
REMARK  106  A    between atoms: _292  and  _293
REMARK  107  A    between atoms: _292  and  _295
REMARK  108  A    between atoms: _298  and  _300
REMARK  109  A    between atoms: _300  and  _301
REMARK  110  A    between atoms: _300  and  _303
REMARK  111  A    between atoms: _303  and  _304
REMARK  112  A    between atoms: _307  and  _309
REMARK  113  A    between atoms: _309  and  _310
REMARK  114  A    between atoms: _312  and  _314
REMARK  115  A    between atoms: _314  and  _315
REMARK  116  A    between atoms: _317  and  _319
REMARK  117  A    between atoms: _319  and  _320
REMARK  118  A    between atoms: _319  and  _322
REMARK  119  A    between atoms: _322  and  _323
REMARK  120  A    between atoms: _325  and  _327
REMARK  121  A    between atoms: _327  and  _328
REMARK  122  A    between atoms: _327  and  _330
REMARK  123  A    between atoms: _330  and  _331
REMARK  124  A    between atoms: _334  and  _336
REMARK  125  A    between atoms: _336  and  _337
REMARK  126  A    between atoms: _336  and  _339
REMARK  127  A    between atoms: _339  and  _340
REMARK  128  A    between atoms: _343  and  _345
REMARK  129  A    between atoms: _345  and  _346
REMARK  130  A    between atoms: _345  and  _348
REMARK  131  A    between atoms: _348  and  _349
REMARK  132  A    between atoms: _353  and  _354
REMARK  133  A    between atoms: _360  and  _361
REMARK  134  A    between atoms: _366  and  _368
REMARK  135  A    between atoms: _368  and  _369
REMARK  136  A    between atoms: _368  and  _371
REMARK  137  A    between atoms: _371  and  _372
REMARK  138  A    between atoms: _375  and  _377
REMARK  139  A    between atoms: _377  and  _378
REMARK  140  A    between atoms: _377  and  _380
REMARK  141  A    between atoms: _380  and  _381
REMARK  142  A    between atoms: _384  and  _386
REMARK  143  A    between atoms: _386  and  _387
REMARK  144  A    between atoms: _386  and  _389
REMARK  145  A    between atoms: _391  and  _393
REMARK  146  A    between atoms: _393  and  _394
REMARK  147  A    between atoms: _393  and  _396
REMARK  148  A    between atoms: _399  and  _401
REMARK  149  A    between atoms: _401  and  _402
REMARK  150  A    between atoms: _401  and  _404
REMARK  151  A    between atoms: _404  and  _405
REMARK  152  A    between atoms: _415  and  _417
REMARK  153  A    between atoms: _417  and  _418
REMARK  154  A    between atoms: _417  and  _420
REMARK  155  A    between atoms: _420  and  _421
REMARK  156  A    between atoms: _426  and  _428
REMARK  157  A    between atoms: _428  and  _429
REMARK  158  A    between atoms: _428  and  _431
REMARK  159  A    between atoms: _431  and  _432
REMARK  160  A    between atoms: _432  and  _433
REMARK  161  A    between atoms: _433  and  _434
REMARK                            x       y       z     vdW  Elec       q    Type
REMARK                         _______ _______ _______ _____ _____    ______ ____
ROOT
ATOM      1  CG  TYR A   1       1.825  -6.924  11.511  0.00  0.00    -0.020 A 
ATOM      2  CD2 TYR A   1       1.460  -6.950  12.869  0.00  0.00    -0.001 A 
ATOM      3  CE2 TYR A   1       0.659  -5.924  13.403  0.00  0.00    +0.036 A 
ATOM      4  CZ  TYR A   1       0.150  -4.912  12.586  0.00  0.00    +0.134 A 
ATOM      5  CE1 TYR A   1       0.518  -4.871  11.227  0.00  0.00    +0.036 A 
ATOM      6  CD1 TYR A   1       1.330  -5.880  10.713  0.00  0.00    -0.001 A 
ENDROOT
BRANCH   4   7
ATOM      7  OH  TYR A   1      -0.654  -3.958  13.155  0.00  0.00    -0.506 OA
ATOM      8  HH  TYR A   1      -0.790  -4.171  14.112  0.00  0.00    +0.292 HD
ENDBRANCH   4   7
BRANCH   1   9
ATOM      9  CB  TYR A   1       2.689  -8.028  10.892  0.00  0.00    +0.051 C 
BRANCH   9  10
ATOM     10  CA  TYR A   1       4.200  -7.782  11.125  0.00  0.00    +0.137 C 
BRANCH  10  11
ATOM     11  N   TYR A   1       4.640  -6.505  10.506  0.00  0.00    -0.239 NA
ATOM     12  H   TYR A   1       4.597  -6.420   9.470  0.00  0.00    +0.142 HD
ENDBRANCH  10  11
BRANCH  10  13
ATOM     13  C   TYR A   1       5.077  -9.003  10.769  0.00  0.00    +0.224 C 
ATOM     14  O   TYR A   1       4.509 -10.078  10.553  0.00  0.00    -0.287 OA
ENDBRANCH  10  13
ENDBRANCH   9  10
ENDBRANCH   1   9
TORSDOF 5
REMARK  Name = ../refined-set-2016/3sbi/3sbi_pocket.pdb
REMARK  161 active torsions:
REMARK  status: ('A' for Active; 'I' for Inactive)
REMARK    1  A    between atoms: _1  and  _3
REMARK    2  A    between atoms: _3  and  _4
REMARK    3  A    between atoms: _3  and  _6
REMARK    4  A    between atoms: _6  and  _7
REMARK    5  A    between atoms: _17  and  _19
REMARK    6  A    between atoms: _19  and  _20
REMARK    7  A    between atoms: _19  and  _22
REMARK    8  A    between atoms: _22  and  _23
REMARK    9  A    between atoms: _28  and  _29
REMARK   10  A    between atoms: _31  and  _33
REMARK   11  A    between atoms: _33  and  _34
REMARK   12  A    between atoms: _33  and  _36
REMARK   13  A    between atoms: _36  and  _37
REMARK   14  A    between atoms: _40  and  _41
REMARK   15  A    between atoms: _46  and  _48
REMARK   16  A    between atoms: _48  and  _49
REMARK   17  A    between atoms: _48  and  _51
REMARK   18  A    between atoms: _51  and  _52
REMARK   19  A    between atoms: _57  and  _59
REMARK   20  A    between atoms: _59  and  _60
REMARK   21  A    between atoms: _59  and  _62
REMARK   22  A    between atoms: _62  and  _63
REMARK   23  A    between atoms: _68  and  _70
REMARK   24  A    between atoms: _70  and  _71
REMARK   25  A    between atoms: _70  and  _73
REMARK   26  A    between atoms: _73  and  _74
REMARK   27  A    between atoms: _79  and  _81
REMARK   28  A    between atoms: _81  and  _82
REMARK   29  A    between atoms: _81  and  _84
REMARK   30  A    between atoms: _84  and  _85
REMARK   31  A    between atoms: _88  and  _90
REMARK   32  A    between atoms: _90  and  _91
REMARK   33  A    between atoms: _90  and  _93
REMARK   34  A    between atoms: _93  and  _94
REMARK   35  A    between atoms: _94  and  _95
REMARK   36  A    between atoms: _100  and  _102
REMARK   37  A    between atoms: _102  and  _103
REMARK   38  A    between atoms: _102  and  _105
REMARK   39  A    between atoms: _105  and  _106
REMARK   40  A    between atoms: _112  and  _114
REMARK   41  A    between atoms: _125  and  _128
REMARK   42  A    between atoms: _128  and  _129
REMARK   43  A    between atoms: _137  and  _138
REMARK   44  A    between atoms: _146  and  _148
REMARK   45  A    between atoms: _148  and  _149
REMARK   46  A    between atoms: _148  and  _151
REMARK   47  A    between atoms: _151  and  _152
REMARK   48  A    between atoms: _152  and  _153
REMARK   49  A    between atoms: _156  and  _158
REMARK   50  A    between atoms: _158  and  _159
REMARK   51  A    between atoms: _158  and  _161
REMARK   52  A    between atoms: _161  and  _162
REMARK   53  A    between atoms: _167  and  _169
REMARK   54  A    between atoms: _169  and  _170
REMARK   55  A    between atoms: _169  and  _172
REMARK   56  A    between atoms: _172  and  _173
REMARK   57  A    between atoms: _173  and  _174
REMARK   58  A    between atoms: _177  and  _179
REMARK   59  A    between atoms: _179  and  _180
REMARK   60  A    between atoms: _179  and  _182
REMARK   61  A    between atoms: _182  and  _183
REMARK   62  A    between atoms: _186  and  _188
REMARK   63  A    between atoms: _188  and  _189
REMARK   64  A    between atoms: _188  and  _191
REMARK   65  A    between atoms: _191  and  _192
REMARK   66  A    between atoms: _193  and  ZN_443
REMARK   67  A    between atoms: _197  and  _199
REMARK   68  A    between atoms: _199  and  _200
REMARK   69  A    between atoms: _199  and  _202
REMARK   70  A    between atoms: _202  and  _203
REMARK   71  A    between atoms: _206  and  _208
REMARK   72  A    between atoms: _208  and  _209
REMARK   73  A    between atoms: _208  and  _211
REMARK   74  A    between atoms: _214  and  _216
REMARK   75  A    between atoms: _216  and  _217
REMARK   76  A    between atoms: _216  and  _219
REMARK   77  A    between atoms: _219  and  _220
REMARK   78  A    between atoms: _225  and  _227
REMARK   79  A    between atoms: _227  and  _228
REMARK   80  A    between atoms: _227  and  _230
REMARK   81  A    between atoms: _230  and  _231
REMARK   82  A    between atoms: _237  and  _239
REMARK   83  A    between atoms: _239  and  _240
REMARK   84  A    between atoms: _242  and  _244
REMARK   85  A    between atoms: _244  and  _245
REMARK   86  A    between atoms: _244  and  _247
REMARK   87  A    between atoms: _247  and  _248
REMARK   88  A    between atoms: _248  and  _249
REMARK   89  A    between atoms: _249  and  _250
REMARK   90  A    between atoms: _250  and  _251
REMARK   91  A    between atoms: _255  and  _257
REMARK   92  A    between atoms: _257  and  _258
REMARK   93  A    between atoms: _257  and  _260
REMARK   94  A    between atoms: _263  and  _265
REMARK   95  A    between atoms: _265  and  _266
REMARK   96  A    between atoms: _265  and  _268
REMARK   97  A    between atoms: _268  and  _269
REMARK   98  A    between atoms: _269  and  _270
REMARK   99  A    between atoms: _275  and  _277
REMARK  100  A    between atoms: _277  and  _278
REMARK  101  A    between atoms: _277  and  _280
REMARK  102  A    between atoms: _280  and  _281
REMARK  103  A    between atoms: _284  and  _286
REMARK  104  A    between atoms: _286  and  _287
REMARK  105  A    between atoms: _290  and  _292
REMARK  106  A    between atoms: _292  and  _293
REMARK  107  A    between atoms: _292  and  _295
REMARK  108  A    between atoms: _298  and  _300
REMARK  109  A    between atoms: _300  and  _301
REMARK  110  A    between atoms: _300  and  _303
REMARK  111  A    between atoms: _303  and  _304
REMARK  112  A    between atoms: _307  and  _309
REMARK  113  A    between atoms: _309  and  _310
REMARK  114  A    between atoms: _312  and  _314
REMARK  115  A    between atoms: _314  and  _315
REMARK  116  A    between atoms: _317  and  _319
REMARK  117  A    between atoms: _319  and  _320
REMARK  118  A    between atoms: _319  and  _322
REMARK  119  A    between atoms: _322  and  _323
REMARK  120  A    between atoms: _325  and  _327
REMARK  121  A    between atoms: _327  and  _328
REMARK  122  A    between atoms: _327  and  _330
REMARK  123  A    between atoms: _330  and  _331
REMARK  124  A    between atoms: _334  and  _336
REMARK  125  A    between atoms: _336  and  _337
REMARK  126  A    between atoms: _336  and  _339
REMARK  127  A    between atoms: _339  and  _340
REMARK  128  A    between atoms: _343  and  _345
REMARK  129  A    between atoms: _345  and  _346
REMARK  130  A    between atoms: _345  and  _348
REMARK  131  A    between atoms: _348  and  _349
REMARK  132  A    between atoms: _353  and  _354
REMARK  133  A    between atoms: _360  and  _361
REMARK  134  A    between atoms: _366  and  _368
REMARK  135  A    between atoms: _368  and  _369
REMARK  136  A    between atoms: _368  and  _371
REMARK  137  A    between atoms: _371  and  _372
REMARK  138  A    between atoms: _375  and  _377
REMARK  139  A    between atoms: _377  and  _378
REMARK  140  A    between atoms: _377  and  _380
REMARK  141  A    between atoms: _380  and  _381
REMARK  142  A    between atoms: _384  and  _386
REMARK  143  A    between atoms: _386  and  _387
REMARK  144  A    between atoms: _386  and  _389
REMARK  145  A    between atoms: _391  and  _393
REMARK  146  A    between atoms: _393  and  _394
REMARK  147  A    between atoms: _393  and  _396
REMARK  148  A    between atoms: _399  and  _401
REMARK  149  A    between atoms: _401  and  _402
REMARK  150  A    between atoms: _401  and  _404
REMARK  151  A    between atoms: _404  and  _405
REMARK  152  A    between atoms: _415  and  _417
REMARK  153  A    between atoms: _417  and  _418
REMARK  154  A    between atoms: _417  and  _420
REMARK  155  A    between atoms: _420  and  _421
REMARK  156  A    between atoms: _426  and  _428
REMARK  157  A    between atoms: _428  and  _429
REMARK  158  A    between atoms: _428  and  _431
REMARK  159  A    between atoms: _431  and  _432
REMARK  160  A    between atoms: _432  and  _433
REMARK  161  A    between atoms: _433  and  _434
REMARK                            x       y       z     vdW  Elec       q    Type
REMARK                         _______ _______ _______ _____ _____    ______ ____
ROOT
ATOM      1  C   SER A   1      -2.315  -3.161  23.219  0.00  0.00    +0.244 C 
ATOM      2  N   PRO A   2      -2.937  -4.302  22.953  0.00  0.00    -0.273 N 
ATOM      3  CA  PRO A   2      -4.100  -4.844  23.679  0.00  0.00    +0.140 C 
ATOM      4  CB  PRO A   2      -4.651  -5.892  22.727  0.00  0.00    +0.030 C 
ATOM      5  CG  PRO A   2      -3.353  -6.503  22.088  0.00  0.00    +0.024 C 
ATOM      6  CD  PRO A   2      -2.457  -5.220  21.903  0.00  0.00    +0.094 C 
ATOM      7  O   SER A   1      -1.355  -2.775  22.546  0.00  0.00    -0.273 OA
ENDROOT
BRANCH   3   8
ATOM      8  C   PRO A   2      -3.697  -5.492  25.022  0.00  0.00    +0.227 C 
ATOM      9  O   PRO A   2      -2.476  -5.531  25.317  0.00  0.00    -0.286 OA
ENDBRANCH   3   8
BRANCH   1  10
ATOM     10  CA  SER A   1      -2.824  -2.279  24.362  0.00  0.00    +0.175 C 
BRANCH  10  11
ATOM     11  N   SER A   1      -1.745  -1.371  24.774  0.00  0.00    -0.236 NA
ATOM     12  H   SER A   1      -1.286  -0.752  24.075  0.00  0.00    +0.142 HD
ENDBRANCH  10  11
BRANCH  10  13
ATOM     13  CB  SER A   1      -4.006  -1.421  23.763  0.00  0.00    +0.163 C 
BRANCH  13  14
ATOM     14  OG  SER A   1      -4.586  -0.692  24.880  0.00  0.00    -0.380 OA
ATOM     15  H   SER A   1      -4.919  -1.335  25.555  0.00  0.00    +0.211 HD
ENDBRANCH  13  14
ENDBRANCH  10  13
ENDBRANCH   1  10
TORSDOF 5
REMARK  Name = ../refined-set-2016/3sbi/3sbi_pocket.pdb
REMARK  161 active torsions:
REMARK  status: ('A' for Active; 'I' for Inactive)
REMARK    1  A    between atoms: _1  and  _3
REMARK    2  A    between atoms: _3  and  _4
REMARK    3  A    between atoms: _3  and  _6
REMARK    4  A    between atoms: _6  and  _7
REMARK    5  A    between atoms: _17  and  _19
REMARK    6  A    between atoms: _19  and  _20
REMARK    7  A    between atoms: _19  and  _22
REMARK    8  A    between atoms: _22  and  _23
REMARK    9  A    between atoms: _28  and  _29
REMARK   10  A    between atoms: _31  and  _33
REMARK   11  A    between atoms: _33  and  _34
REMARK   12  A    between atoms: _33  and  _36
REMARK   13  A    between atoms: _36  and  _37
REMARK   14  A    between atoms: _40  and  _41
REMARK   15  A    between atoms: _46  and  _48
REMARK   16  A    between atoms: _48  and  _49
REMARK   17  A    between atoms: _48  and  _51
REMARK   18  A    between atoms: _51  and  _52
REMARK   19  A    between atoms: _57  and  _59
REMARK   20  A    between atoms: _59  and  _60
REMARK   21  A    between atoms: _59  and  _62
REMARK   22  A    between atoms: _62  and  _63
REMARK   23  A    between atoms: _68  and  _70
REMARK   24  A    between atoms: _70  and  _71
REMARK   25  A    between atoms: _70  and  _73
REMARK   26  A    between atoms: _73  and  _74
REMARK   27  A    between atoms: _79  and  _81
REMARK   28  A    between atoms: _81  and  _82
REMARK   29  A    between atoms: _81  and  _84
REMARK   30  A    between atoms: _84  and  _85
REMARK   31  A    between atoms: _88  and  _90
REMARK   32  A    between atoms: _90  and  _91
REMARK   33  A    between atoms: _90  and  _93
REMARK   34  A    between atoms: _93  and  _94
REMARK   35  A    between atoms: _94  and  _95
REMARK   36  A    between atoms: _100  and  _102
REMARK   37  A    between atoms: _102  and  _103
REMARK   38  A    between atoms: _102  and  _105
REMARK   39  A    between atoms: _105  and  _106
REMARK   40  A    between atoms: _112  and  _114
REMARK   41  A    between atoms: _125  and  _128
REMARK   42  A    between atoms: _128  and  _129
REMARK   43  A    between atoms: _137  and  _138
REMARK   44  A    between atoms: _146  and  _148
REMARK   45  A    between atoms: _148  and  _149
REMARK   46  A    between atoms: _148  and  _151
REMARK   47  A    between atoms: _151  and  _152
REMARK   48  A    between atoms: _152  and  _153
REMARK   49  A    between atoms: _156  and  _158
REMARK   50  A    between atoms: _158  and  _159
REMARK   51  A    between atoms: _158  and  _161
REMARK   52  A    between atoms: _161  and  _162
REMARK   53  A    between atoms: _167  and  _169
REMARK   54  A    between atoms: _169  and  _170
REMARK   55  A    between atoms: _169  and  _172
REMARK   56  A    between atoms: _172  and  _173
REMARK   57  A    between atoms: _173  and  _174
REMARK   58  A    between atoms: _177  and  _179
REMARK   59  A    between atoms: _179  and  _180
REMARK   60  A    between atoms: _179  and  _182
REMARK   61  A    between atoms: _182  and  _183
REMARK   62  A    between atoms: _186  and  _188
REMARK   63  A    between atoms: _188  and  _189
REMARK   64  A    between atoms: _188  and  _191
REMARK   65  A    between atoms: _191  and  _192
REMARK   66  A    between atoms: _193  and  ZN_443
REMARK   67  A    between atoms: _197  and  _199
REMARK   68  A    between atoms: _199  and  _200
REMARK   69  A    between atoms: _199  and  _202
REMARK   70  A    between atoms: _202  and  _203
REMARK   71  A    between atoms: _206  and  _208
REMARK   72  A    between atoms: _208  and  _209
REMARK   73  A    between atoms: _208  and  _211
REMARK   74  A    between atoms: _214  and  _216
REMARK   75  A    between atoms: _216  and  _217
REMARK   76  A    between atoms: _216  and  _219
REMARK   77  A    between atoms: _219  and  _220
REMARK   78  A    between atoms: _225  and  _227
REMARK   79  A    between atoms: _227  and  _228
REMARK   80  A    between atoms: _227  and  _230
REMARK   81  A    between atoms: _230  and  _231
REMARK   82  A    between atoms: _237  and  _239
REMARK   83  A    between atoms: _239  and  _240
REMARK   84  A    between atoms: _242  and  _244
REMARK   85  A    between atoms: _244  and  _245
REMARK   86  A    between atoms: _244  and  _247
REMARK   87  A    between atoms: _247  and  _248
REMARK   88  A    between atoms: _248  and  _249
REMARK   89  A    between atoms: _249  and  _250
REMARK   90  A    between atoms: _250  and  _251
REMARK   91  A    between atoms: _255  and  _257
REMARK   92  A    between atoms: _257  and  _258
REMARK   93  A    between atoms: _257  and  _260
REMARK   94  A    between atoms: _263  and  _265
REMARK   95  A    between atoms: _265  and  _266
REMARK   96  A    between atoms: _265  and  _268
REMARK   97  A    between atoms: _268  and  _269
REMARK   98  A    between atoms: _269  and  _270
REMARK   99  A    between atoms: _275  and  _277
REMARK  100  A    between atoms: _277  and  _278
REMARK  101  A    between atoms: _277  and  _280
REMARK  102  A    between atoms: _280  and  _281
REMARK  103  A    between atoms: _284  and  _286
REMARK  104  A    between atoms: _286  and  _287
REMARK  105  A    between atoms: _290  and  _292
REMARK  106  A    between atoms: _292  and  _293
REMARK  107  A    between atoms: _292  and  _295
REMARK  108  A    between atoms: _298  and  _300
REMARK  109  A    between atoms: _300  and  _301
REMARK  110  A    between atoms: _300  and  _303
REMARK  111  A    between atoms: _303  and  _304
REMARK  112  A    between atoms: _307  and  _309
REMARK  113  A    between atoms: _309  and  _310
REMARK  114  A    between atoms: _312  and  _314
REMARK  115  A    between atoms: _314  and  _315
REMARK  116  A    between atoms: _317  and  _319
REMARK  117  A    between atoms: _319  and  _320
REMARK  118  A    between atoms: _319  and  _322
REMARK  119  A    between atoms: _322  and  _323
REMARK  120  A    between atoms: _325  and  _327
REMARK  121  A    between atoms: _327  and  _328
REMARK  122  A    between atoms: _327  and  _330
REMARK  123  A    between atoms: _330  and  _331
REMARK  124  A    between atoms: _334  and  _336
REMARK  125  A    between atoms: _336  and  _337
REMARK  126  A    between atoms: _336  and  _339
REMARK  127  A    between atoms: _339  and  _340
REMARK  128  A    between atoms: _343  and  _345
REMARK  129  A    between atoms: _345  and  _346
REMARK  130  A    between atoms: _345  and  _348
REMARK  131  A    between atoms: _348  and  _349
REMARK  132  A    between atoms: _353  and  _354
REMARK  133  A    between atoms: _360  and  _361
REMARK  134  A    between atoms: _366  and  _368
REMARK  135  A    between atoms: _368  and  _369
REMARK  136  A    between atoms: _368  and  _371
REMARK  137  A    between atoms: _371  and  _372
REMARK  138  A    between atoms: _375  and  _377
REMARK  139  A    between atoms: _377  and  _378
REMARK  140  A    between atoms: _377  and  _380
REMARK  141  A    between atoms: _380  and  _381
REMARK  142  A    between atoms: _384  and  _386
REMARK  143  A    between atoms: _386  and  _387
REMARK  144  A    between atoms: _386  and  _389
REMARK  145  A    between atoms: _391  and  _393
REMARK  146  A    between atoms: _393  and  _394
REMARK  147  A    between atoms: _393  and  _396
REMARK  148  A    between atoms: _399  and  _401
REMARK  149  A    between atoms: _401  and  _402
REMARK  150  A    between atoms: _401  and  _404
REMARK  151  A    between atoms: _404  and  _405
REMARK  152  A    between atoms: _415  and  _417
REMARK  153  A    between atoms: _417  and  _418
REMARK  154  A    between atoms: _417  and  _420
REMARK  155  A    between atoms: _420  and  _421
REMARK  156  A    between atoms: _426  and  _428
REMARK  157  A    between atoms: _428  and  _429
REMARK  158  A    between atoms: _428  and  _431
REMARK  159  A    between atoms: _431  and  _432
REMARK  160  A    between atoms: _432  and  _433
REMARK  161  A    between atoms: _433  and  _434
REMARK                            x       y       z     vdW  Elec       q    Type
REMARK                         _______ _______ _______ _____ _____    ______ ____
ROOT
ATOM      1  CB  ASN A   1      -2.619   1.934   5.336  0.00  0.00    +0.104 C 
ENDROOT
BRANCH   1   2
ATOM      2  CG  ASN A   1      -2.731   0.987   6.556  0.00  0.00    +0.221 C 
ATOM      3  ND2 ASN A   1      -2.932   1.581   7.716  0.00  0.00    -0.329 N 
ATOM      4 HD21 ASN A   1      -2.910   1.026   8.595  0.00  0.00    +0.145 HD
ATOM      5 HD22 ASN A   1      -3.113   2.605   7.752  0.00  0.00    +0.145 HD
ATOM      6  OD1 ASN A   1      -2.510  -0.251   6.482  0.00  0.00    -0.275 OA
ENDBRANCH   1   2
BRANCH   1   7
ATOM      7  CA  ASN A   1      -2.253   1.135   4.065  0.00  0.00    +0.110 C 
BRANCH   7   8
ATOM      8  N   ASN A   1      -3.324   0.275   3.574  0.00  0.00    -0.244 NA
ATOM      9  H   ASN A   1      -3.878  -0.293   4.246  0.00  0.00    +0.141 HD
ENDBRANCH   7   8
BRANCH   7  10
ATOM     10  C   ASN A   1      -0.938   0.346   4.288  0.00  0.00    +0.199 C 
ATOM     11  O   ASN A   1       0.080   0.845   4.918  0.00  0.00    -0.219 OA
ENDBRANCH   7  10
ENDBRANCH   1   7
TORSDOF 4
REMARK  Name = ../refined-set-2016/3sbi/3sbi_pocket.pdb
REMARK  161 active torsions:
REMARK  status: ('A' for Active; 'I' for Inactive)
REMARK    1  A    between atoms: _1  and  _3
REMARK    2  A    between atoms: _3  and  _4
REMARK    3  A    between atoms: _3  and  _6
REMARK    4  A    between atoms: _6  and  _7
REMARK    5  A    between atoms: _17  and  _19
REMARK    6  A    between atoms: _19  and  _20
REMARK    7  A    between atoms: _19  and  _22
REMARK    8  A    between atoms: _22  and  _23
REMARK    9  A    between atoms: _28  and  _29
REMARK   10  A    between atoms: _31  and  _33
REMARK   11  A    between atoms: _33  and  _34
REMARK   12  A    between atoms: _33  and  _36
REMARK   13  A    between atoms: _36  and  _37
REMARK   14  A    between atoms: _40  and  _41
REMARK   15  A    between atoms: _46  and  _48
REMARK   16  A    between atoms: _48  and  _49
REMARK   17  A    between atoms: _48  and  _51
REMARK   18  A    between atoms: _51  and  _52
REMARK   19  A    between atoms: _57  and  _59
REMARK   20  A    between atoms: _59  and  _60
REMARK   21  A    between atoms: _59  and  _62
REMARK   22  A    between atoms: _62  and  _63
REMARK   23  A    between atoms: _68  and  _70
REMARK   24  A    between atoms: _70  and  _71
REMARK   25  A    between atoms: _70  and  _73
REMARK   26  A    between atoms: _73  and  _74
REMARK   27  A    between atoms: _79  and  _81
REMARK   28  A    between atoms: _81  and  _82
REMARK   29  A    between atoms: _81  and  _84
REMARK   30  A    between atoms: _84  and  _85
REMARK   31  A    between atoms: _88  and  _90
REMARK   32  A    between atoms: _90  and  _91
REMARK   33  A    between atoms: _90  and  _93
REMARK   34  A    between atoms: _93  and  _94
REMARK   35  A    between atoms: _94  and  _95
REMARK   36  A    between atoms: _100  and  _102
REMARK   37  A    between atoms: _102  and  _103
REMARK   38  A    between atoms: _102  and  _105
REMARK   39  A    between atoms: _105  and  _106
REMARK   40  A    between atoms: _112  and  _114
REMARK   41  A    between atoms: _125  and  _128
REMARK   42  A    between atoms: _128  and  _129
REMARK   43  A    between atoms: _137  and  _138
REMARK   44  A    between atoms: _146  and  _148
REMARK   45  A    between atoms: _148  and  _149
REMARK   46  A    between atoms: _148  and  _151
REMARK   47  A    between atoms: _151  and  _152
REMARK   48  A    between atoms: _152  and  _153
REMARK   49  A    between atoms: _156  and  _158
REMARK   50  A    between atoms: _158  and  _159
REMARK   51  A    between atoms: _158  and  _161
REMARK   52  A    between atoms: _161  and  _162
REMARK   53  A    between atoms: _167  and  _169
REMARK   54  A    between atoms: _169  and  _170
REMARK   55  A    between atoms: _169  and  _172
REMARK   56  A    between atoms: _172  and  _173
REMARK   57  A    between atoms: _173  and  _174
REMARK   58  A    between atoms: _177  and  _179
REMARK   59  A    between atoms: _179  and  _180
REMARK   60  A    between atoms: _179  and  _182
REMARK   61  A    between atoms: _182  and  _183
REMARK   62  A    between atoms: _186  and  _188
REMARK   63  A    between atoms: _188  and  _189
REMARK   64  A    between atoms: _188  and  _191
REMARK   65  A    between atoms: _191  and  _192
REMARK   66  A    between atoms: _193  and  ZN_443
REMARK   67  A    between atoms: _197  and  _199
REMARK   68  A    between atoms: _199  and  _200
REMARK   69  A    between atoms: _199  and  _202
REMARK   70  A    between atoms: _202  and  _203
REMARK   71  A    between atoms: _206  and  _208
REMARK   72  A    between atoms: _208  and  _209
REMARK   73  A    between atoms: _208  and  _211
REMARK   74  A    between atoms: _214  and  _216
REMARK   75  A    between atoms: _216  and  _217
REMARK   76  A    between atoms: _216  and  _219
REMARK   77  A    between atoms: _219  and  _220
REMARK   78  A    between atoms: _225  and  _227
REMARK   79  A    between atoms: _227  and  _228
REMARK   80  A    between atoms: _227  and  _230
REMARK   81  A    between atoms: _230  and  _231
REMARK   82  A    between atoms: _237  and  _239
REMARK   83  A    between atoms: _239  and  _240
REMARK   84  A    between atoms: _242  and  _244
REMARK   85  A    between atoms: _244  and  _245
REMARK   86  A    between atoms: _244  and  _247
REMARK   87  A    between atoms: _247  and  _248
REMARK   88  A    between atoms: _248  and  _249
REMARK   89  A    between atoms: _249  and  _250
REMARK   90  A    between atoms: _250  and  _251
REMARK   91  A    between atoms: _255  and  _257
REMARK   92  A    between atoms: _257  and  _258
REMARK   93  A    between atoms: _257  and  _260
REMARK   94  A    between atoms: _263  and  _265
REMARK   95  A    between atoms: _265  and  _266
REMARK   96  A    between atoms: _265  and  _268
REMARK   97  A    between atoms: _268  and  _269
REMARK   98  A    between atoms: _269  and  _270
REMARK   99  A    between atoms: _275  and  _277
REMARK  100  A    between atoms: _277  and  _278
REMARK  101  A    between atoms: _277  and  _280
REMARK  102  A    between atoms: _280  and  _281
REMARK  103  A    between atoms: _284  and  _286
REMARK  104  A    between atoms: _286  and  _287
REMARK  105  A    between atoms: _290  and  _292
REMARK  106  A    between atoms: _292  and  _293
REMARK  107  A    between atoms: _292  and  _295
REMARK  108  A    between atoms: _298  and  _300
REMARK  109  A    between atoms: _300  and  _301
REMARK  110  A    between atoms: _300  and  _303
REMARK  111  A    between atoms: _303  and  _304
REMARK  112  A    between atoms: _307  and  _309
REMARK  113  A    between atoms: _309  and  _310
REMARK  114  A    between atoms: _312  and  _314
REMARK  115  A    between atoms: _314  and  _315
REMARK  116  A    between atoms: _317  and  _319
REMARK  117  A    between atoms: _319  and  _320
REMARK  118  A    between atoms: _319  and  _322
REMARK  119  A    between atoms: _322  and  _323
REMARK  120  A    between atoms: _325  and  _327
REMARK  121  A    between atoms: _327  and  _328
REMARK  122  A    between atoms: _327  and  _330
REMARK  123  A    between atoms: _330  and  _331
REMARK  124  A    between atoms: _334  and  _336
REMARK  125  A    between atoms: _336  and  _337
REMARK  126  A    between atoms: _336  and  _339
REMARK  127  A    between atoms: _339  and  _340
REMARK  128  A    between atoms: _343  and  _345
REMARK  129  A    between atoms: _345  and  _346
REMARK  130  A    between atoms: _345  and  _348
REMARK  131  A    between atoms: _348  and  _349
REMARK  132  A    between atoms: _353  and  _354
REMARK  133  A    between atoms: _360  and  _361
REMARK  134  A    between atoms: _366  and  _368
REMARK  135  A    between atoms: _368  and  _369
REMARK  136  A    between atoms: _368  and  _371
REMARK  137  A    between atoms: _371  and  _372
REMARK  138  A    between atoms: _375  and  _377
REMARK  139  A    between atoms: _377  and  _378
REMARK  140  A    between atoms: _377  and  _380
REMARK  141  A    between atoms: _380  and  _381
REMARK  142  A    between atoms: _384  and  _386
REMARK  143  A    between atoms: _386  and  _387
REMARK  144  A    between atoms: _386  and  _389
REMARK  145  A    between atoms: _391  and  _393
REMARK  146  A    between atoms: _393  and  _394
REMARK  147  A    between atoms: _393  and  _396
REMARK  148  A    between atoms: _399  and  _401
REMARK  149  A    between atoms: _401  and  _402
REMARK  150  A    between atoms: _401  and  _404
REMARK  151  A    between atoms: _404  and  _405
REMARK  152  A    between atoms: _415  and  _417
REMARK  153  A    between atoms: _417  and  _418
REMARK  154  A    between atoms: _417  and  _420
REMARK  155  A    between atoms: _420  and  _421
REMARK  156  A    between atoms: _426  and  _428
REMARK  157  A    between atoms: _428  and  _429
REMARK  158  A    between atoms: _428  and  _431
REMARK  159  A    between atoms: _431  and  _432
REMARK  160  A    between atoms: _432  and  _433
REMARK  161  A    between atoms: _433  and  _434
REMARK                            x       y       z     vdW  Elec       q    Type
REMARK                         _______ _______ _______ _____ _____    ______ ____
ROOT
ATOM      1  CB  HIS A   1      -0.559  -1.989   8.694  0.00  0.00    +0.072 C 
ENDROOT
BRANCH   1   2
ATOM      2  CG  HIS A   1       0.739  -1.242   8.537  0.00  0.00    +0.082 A 
ATOM      3  ND1 HIS A   1       1.967  -1.885   8.625  0.00  0.00    -0.227 NA
ATOM      4  CE1 HIS A   1       2.950  -1.011   8.473  0.00  0.00    +0.199 A 
ATOM      5  NE2 HIS A   1       2.399   0.181   8.285  0.00  0.00    -0.221 NA
ATOM      6  CD2 HIS A   1       1.011   0.061   8.307  0.00  0.00    +0.115 A 
ENDBRANCH   1   2
BRANCH   1   7
ATOM      7  CA  HIS A   1      -0.773  -2.987   7.546  0.00  0.00    +0.139 C 
BRANCH   7   8
ATOM      8  N   HIS A   1      -0.686  -2.283   6.190  0.00  0.00    -0.239 NA
ATOM      9  H   HIS A   1      -1.406  -1.576   5.941  0.00  0.00    +0.142 HD
ENDBRANCH   7   8
BRANCH   7  10
ATOM     10  C   HIS A   1      -2.130  -3.626   7.682  0.00  0.00    +0.224 C 
ATOM     11  O   HIS A   1      -2.232  -4.755   8.233  0.00  0.00    -0.287 OA
ENDBRANCH   7  10
ENDBRANCH   1   7
TORSDOF 4
REMARK  Name = ../refined-set-2016/3sbi/3sbi_pocket.pdb
REMARK  161 active torsions:
REMARK  status: ('A' for Active; 'I' for Inactive)
REMARK    1  A    between atoms: _1  and  _3
REMARK    2  A    between atoms: _3  and  _4
REMARK    3  A    between atoms: _3  and  _6
REMARK    4  A    between atoms: _6  and  _7
REMARK    5  A    between atoms: _17  and  _19
REMARK    6  A    between atoms: _19  and  _20
REMARK    7  A    between atoms: _19  and  _22
REMARK    8  A    between atoms: _22  and  _23
REMARK    9  A    between atoms: _28  and  _29
REMARK   10  A    between atoms: _31  and  _33
REMARK   11  A    between atoms: _33  and  _34
REMARK   12  A    between atoms: _33  and  _36
REMARK   13  A    between atoms: _36  and  _37
REMARK   14  A    between atoms: _40  and  _41
REMARK   15  A    between atoms: _46  and  _48
REMARK   16  A    between atoms: _48  and  _49
REMARK   17  A    between atoms: _48  and  _51
REMARK   18  A    between atoms: _51  and  _52
REMARK   19  A    between atoms: _57  and  _59
REMARK   20  A    between atoms: _59  and  _60
REMARK   21  A    between atoms: _59  and  _62
REMARK   22  A    between atoms: _62  and  _63
REMARK   23  A    between atoms: _68  and  _70
REMARK   24  A    between atoms: _70  and  _71
REMARK   25  A    between atoms: _70  and  _73
REMARK   26  A    between atoms: _73  and  _74
REMARK   27  A    between atoms: _79  and  _81
REMARK   28  A    between atoms: _81  and  _82
REMARK   29  A    between atoms: _81  and  _84
REMARK   30  A    between atoms: _84  and  _85
REMARK   31  A    between atoms: _88  and  _90
REMARK   32  A    between atoms: _90  and  _91
REMARK   33  A    between atoms: _90  and  _93
REMARK   34  A    between atoms: _93  and  _94
REMARK   35  A    between atoms: _94  and  _95
REMARK   36  A    between atoms: _100  and  _102
REMARK   37  A    between atoms: _102  and  _103
REMARK   38  A    between atoms: _102  and  _105
REMARK   39  A    between atoms: _105  and  _106
REMARK   40  A    between atoms: _112  and  _114
REMARK   41  A    between atoms: _125  and  _128
REMARK   42  A    between atoms: _128  and  _129
REMARK   43  A    between atoms: _137  and  _138
REMARK   44  A    between atoms: _146  and  _148
REMARK   45  A    between atoms: _148  and  _149
REMARK   46  A    between atoms: _148  and  _151
REMARK   47  A    between atoms: _151  and  _152
REMARK   48  A    between atoms: _152  and  _153
REMARK   49  A    between atoms: _156  and  _158
REMARK   50  A    between atoms: _158  and  _159
REMARK   51  A    between atoms: _158  and  _161
REMARK   52  A    between atoms: _161  and  _162
REMARK   53  A    between atoms: _167  and  _169
REMARK   54  A    between atoms: _169  and  _170
REMARK   55  A    between atoms: _169  and  _172
REMARK   56  A    between atoms: _172  and  _173
REMARK   57  A    between atoms: _173  and  _174
REMARK   58  A    between atoms: _177  and  _179
REMARK   59  A    between atoms: _179  and  _180
REMARK   60  A    between atoms: _179  and  _182
REMARK   61  A    between atoms: _182  and  _183
REMARK   62  A    between atoms: _186  and  _188
REMARK   63  A    between atoms: _188  and  _189
REMARK   64  A    between atoms: _188  and  _191
REMARK   65  A    between atoms: _191  and  _192
REMARK   66  A    between atoms: _193  and  ZN_443
REMARK   67  A    between atoms: _197  and  _199
REMARK   68  A    between atoms: _199  and  _200
REMARK   69  A    between atoms: _199  and  _202
REMARK   70  A    between atoms: _202  and  _203
REMARK   71  A    between atoms: _206  and  _208
REMARK   72  A    between atoms: _208  and  _209
REMARK   73  A    between atoms: _208  and  _211
REMARK   74  A    between atoms: _214  and  _216
REMARK   75  A    between atoms: _216  and  _217
REMARK   76  A    between atoms: _216  and  _219
REMARK   77  A    between atoms: _219  and  _220
REMARK   78  A    between atoms: _225  and  _227
REMARK   79  A    between atoms: _227  and  _228
REMARK   80  A    between atoms: _227  and  _230
REMARK   81  A    between atoms: _230  and  _231
REMARK   82  A    between atoms: _237  and  _239
REMARK   83  A    between atoms: _239  and  _240
REMARK   84  A    between atoms: _242  and  _244
REMARK   85  A    between atoms: _244  and  _245
REMARK   86  A    between atoms: _244  and  _247
REMARK   87  A    between atoms: _247  and  _248
REMARK   88  A    between atoms: _248  and  _249
REMARK   89  A    between atoms: _249  and  _250
REMARK   90  A    between atoms: _250  and  _251
REMARK   91  A    between atoms: _255  and  _257
REMARK   92  A    between atoms: _257  and  _258
REMARK   93  A    between atoms: _257  and  _260
REMARK   94  A    between atoms: _263  and  _265
REMARK   95  A    between atoms: _265  and  _266
REMARK   96  A    between atoms: _265  and  _268
REMARK   97  A    between atoms: _268  and  _269
REMARK   98  A    between atoms: _269  and  _270
REMARK   99  A    between atoms: _275  and  _277
REMARK  100  A    between atoms: _277  and  _278
REMARK  101  A    between atoms: _277  and  _280
REMARK  102  A    between atoms: _280  and  _281
REMARK  103  A    between atoms: _284  and  _286
REMARK  104  A    between atoms: _286  and  _287
REMARK  105  A    between atoms: _290  and  _292
REMARK  106  A    between atoms: _292  and  _293
REMARK  107  A    between atoms: _292  and  _295
REMARK  108  A    between atoms: _298  and  _300
REMARK  109  A    between atoms: _300  and  _301
REMARK  110  A    between atoms: _300  and  _303
REMARK  111  A    between atoms: _303  and  _304
REMARK  112  A    between atoms: _307  and  _309
REMARK  113  A    between atoms: _309  and  _310
REMARK  114  A    between atoms: _312  and  _314
REMARK  115  A    between atoms: _314  and  _315
REMARK  116  A    between atoms: _317  and  _319
REMARK  117  A    between atoms: _319  and  _320
REMARK  118  A    between atoms: _319  and  _322
REMARK  119  A    between atoms: _322  and  _323
REMARK  120  A    between atoms: _325  and  _327
REMARK  121  A    between atoms: _327  and  _328
REMARK  122  A    between atoms: _327  and  _330
REMARK  123  A    between atoms: _330  and  _331
REMARK  124  A    between atoms: _334  and  _336
REMARK  125  A    between atoms: _336  and  _337
REMARK  126  A    between atoms: _336  and  _339
REMARK  127  A    between atoms: _339  and  _340
REMARK  128  A    between atoms: _343  and  _345
REMARK  129  A    between atoms: _345  and  _346
REMARK  130  A    between atoms: _345  and  _348
REMARK  131  A    between atoms: _348  and  _349
REMARK  132  A    between atoms: _353  and  _354
REMARK  133  A    between atoms: _360  and  _361
REMARK  134  A    between atoms: _366  and  _368
REMARK  135  A    between atoms: _368  and  _369
REMARK  136  A    between atoms: _368  and  _371
REMARK  137  A    between atoms: _371  and  _372
REMARK  138  A    between atoms: _375  and  _377
REMARK  139  A    between atoms: _377  and  _378
REMARK  140  A    between atoms: _377  and  _380
REMARK  141  A    between atoms: _380  and  _381
REMARK  142  A    between atoms: _384  and  _386
REMARK  143  A    between atoms: _386  and  _387
REMARK  144  A    between atoms: _386  and  _389
REMARK  145  A    between atoms: _391  and  _393
REMARK  146  A    between atoms: _393  and  _394
REMARK  147  A    between atoms: _393  and  _396
REMARK  148  A    between atoms: _399  and  _401
REMARK  149  A    between atoms: _401  and  _402
REMARK  150  A    between atoms: _401  and  _404
REMARK  151  A    between atoms: _404  and  _405
REMARK  152  A    between atoms: _415  and  _417
REMARK  153  A    between atoms: _417  and  _418
REMARK  154  A    between atoms: _417  and  _420
REMARK  155  A    between atoms: _420  and  _421
REMARK  156  A    between atoms: _426  and  _428
REMARK  157  A    between atoms: _428  and  _429
REMARK  158  A    between atoms: _428  and  _431
REMARK  159  A    between atoms: _431  and  _432
REMARK  160  A    between atoms: _432  and  _433
REMARK  161  A    between atoms: _433  and  _434
REMARK                            x       y       z     vdW  Elec       q    Type
REMARK                         _______ _______ _______ _____ _____    ______ ____
ROOT
ATOM      1  CB  ASN A   1      -8.472   2.681   6.959  0.00  0.00    +0.110 C 
ENDROOT
BRANCH   1   2
ATOM      2  CG  ASN A   1      -7.310   2.466   7.863  0.00  0.00    +0.221 C 
ATOM      3  OD1 ASN A   1      -7.174   1.400   8.537  0.00  0.00    -0.275 OA
ATOM      4  ND2 ASN A   1      -6.485   3.545   8.006  0.00  0.00    -0.329 N 
ATOM      5 HD21 ASN A   1      -5.704   3.515   8.692  0.00  0.00    +0.145 HD
ATOM      6 HD22 ASN A   1      -6.638   4.397   7.429  0.00  0.00    +0.145 HD
ENDBRANCH   1   2
BRANCH   1   7
ATOM      7  CA  ASN A   1      -9.152   1.381   6.562  0.00  0.00    +0.142 C 
BRANCH   7   8
ATOM      8  N   ASN A   1      -8.308   0.429   5.774  0.00  0.00    -0.239 NA
ATOM      9  H   ASN A   1      -7.796   0.764   4.933  0.00  0.00    +0.142 HD
ENDBRANCH   7   8
BRANCH   7  10
ATOM     10  C   ASN A   1     -10.373   1.800   5.740  0.00  0.00    +0.225 C 
ATOM     11  O   ASN A   1     -10.229   2.193   4.577  0.00  0.00    -0.287 OA
ENDBRANCH   7  10
ENDBRANCH   1   7
TORSDOF 4
REMARK  Name = ../refined-set-2016/3sbi/3sbi_pocket.pdb
REMARK  161 active torsions:
REMARK  status: ('A' for Active; 'I' for Inactive)
REMARK    1  A    between atoms: _1  and  _3
REMARK    2  A    between atoms: _3  and  _4
REMARK    3  A    between atoms: _3  and  _6
REMARK    4  A    between atoms: _6  and  _7
REMARK    5  A    between atoms: _17  and  _19
REMARK    6  A    between atoms: _19  and  _20
REMARK    7  A    between atoms: _19  and  _22
REMARK    8  A    between atoms: _22  and  _23
REMARK    9  A    between atoms: _28  and  _29
REMARK   10  A    between atoms: _31  and  _33
REMARK   11  A    between atoms: _33  and  _34
REMARK   12  A    between atoms: _33  and  _36
REMARK   13  A    between atoms: _36  and  _37
REMARK   14  A    between atoms: _40  and  _41
REMARK   15  A    between atoms: _46  and  _48
REMARK   16  A    between atoms: _48  and  _49
REMARK   17  A    between atoms: _48  and  _51
REMARK   18  A    between atoms: _51  and  _52
REMARK   19  A    between atoms: _57  and  _59
REMARK   20  A    between atoms: _59  and  _60
REMARK   21  A    between atoms: _59  and  _62
REMARK   22  A    between atoms: _62  and  _63
REMARK   23  A    between atoms: _68  and  _70
REMARK   24  A    between atoms: _70  and  _71
REMARK   25  A    between atoms: _70  and  _73
REMARK   26  A    between atoms: _73  and  _74
REMARK   27  A    between atoms: _79  and  _81
REMARK   28  A    between atoms: _81  and  _82
REMARK   29  A    between atoms: _81  and  _84
REMARK   30  A    between atoms: _84  and  _85
REMARK   31  A    between atoms: _88  and  _90
REMARK   32  A    between atoms: _90  and  _91
REMARK   33  A    between atoms: _90  and  _93
REMARK   34  A    between atoms: _93  and  _94
REMARK   35  A    between atoms: _94  and  _95
REMARK   36  A    between atoms: _100  and  _102
REMARK   37  A    between atoms: _102  and  _103
REMARK   38  A    between atoms: _102  and  _105
REMARK   39  A    between atoms: _105  and  _106
REMARK   40  A    between atoms: _112  and  _114
REMARK   41  A    between atoms: _125  and  _128
REMARK   42  A    between atoms: _128  and  _129
REMARK   43  A    between atoms: _137  and  _138
REMARK   44  A    between atoms: _146  and  _148
REMARK   45  A    between atoms: _148  and  _149
REMARK   46  A    between atoms: _148  and  _151
REMARK   47  A    between atoms: _151  and  _152
REMARK   48  A    between atoms: _152  and  _153
REMARK   49  A    between atoms: _156  and  _158
REMARK   50  A    between atoms: _158  and  _159
REMARK   51  A    between atoms: _158  and  _161
REMARK   52  A    between atoms: _161  and  _162
REMARK   53  A    between atoms: _167  and  _169
REMARK   54  A    between atoms: _169  and  _170
REMARK   55  A    between atoms: _169  and  _172
REMARK   56  A    between atoms: _172  and  _173
REMARK   57  A    between atoms: _173  and  _174
REMARK   58  A    between atoms: _177  and  _179
REMARK   59  A    between atoms: _179  and  _180
REMARK   60  A    between atoms: _179  and  _182
REMARK   61  A    between atoms: _182  and  _183
REMARK   62  A    between atoms: _186  and  _188
REMARK   63  A    between atoms: _188  and  _189
REMARK   64  A    between atoms: _188  and  _191
REMARK   65  A    between atoms: _191  and  _192
REMARK   66  A    between atoms: _193  and  ZN_443
REMARK   67  A    between atoms: _197  and  _199
REMARK   68  A    between atoms: _199  and  _200
REMARK   69  A    between atoms: _199  and  _202
REMARK   70  A    between atoms: _202  and  _203
REMARK   71  A    between atoms: _206  and  _208
REMARK   72  A    between atoms: _208  and  _209
REMARK   73  A    between atoms: _208  and  _211
REMARK   74  A    between atoms: _214  and  _216
REMARK   75  A    between atoms: _216  and  _217
REMARK   76  A    between atoms: _216  and  _219
REMARK   77  A    between atoms: _219  and  _220
REMARK   78  A    between atoms: _225  and  _227
REMARK   79  A    between atoms: _227  and  _228
REMARK   80  A    between atoms: _227  and  _230
REMARK   81  A    between atoms: _230  and  _231
REMARK   82  A    between atoms: _237  and  _239
REMARK   83  A    between atoms: _239  and  _240
REMARK   84  A    between atoms: _242  and  _244
REMARK   85  A    between atoms: _244  and  _245
REMARK   86  A    between atoms: _244  and  _247
REMARK   87  A    between atoms: _247  and  _248
REMARK   88  A    between atoms: _248  and  _249
REMARK   89  A    between atoms: _249  and  _250
REMARK   90  A    between atoms: _250  and  _251
REMARK   91  A    between atoms: _255  and  _257
REMARK   92  A    between atoms: _257  and  _258
REMARK   93  A    between atoms: _257  and  _260
REMARK   94  A    between atoms: _263  and  _265
REMARK   95  A    between atoms: _265  and  _266
REMARK   96  A    between atoms: _265  and  _268
REMARK   97  A    between atoms: _268  and  _269
REMARK   98  A    between atoms: _269  and  _270
REMARK   99  A    between atoms: _275  and  _277
REMARK  100  A    between atoms: _277  and  _278
REMARK  101  A    between atoms: _277  and  _280
REMARK  102  A    between atoms: _280  and  _281
REMARK  103  A    between atoms: _284  and  _286
REMARK  104  A    between atoms: _286  and  _287
REMARK  105  A    between atoms: _290  and  _292
REMARK  106  A    between atoms: _292  and  _293
REMARK  107  A    between atoms: _292  and  _295
REMARK  108  A    between atoms: _298  and  _300
REMARK  109  A    between atoms: _300  and  _301
REMARK  110  A    between atoms: _300  and  _303
REMARK  111  A    between atoms: _303  and  _304
REMARK  112  A    between atoms: _307  and  _309
REMARK  113  A    between atoms: _309  and  _310
REMARK  114  A    between atoms: _312  and  _314
REMARK  115  A    between atoms: _314  and  _315
REMARK  116  A    between atoms: _317  and  _319
REMARK  117  A    between atoms: _319  and  _320
REMARK  118  A    between atoms: _319  and  _322
REMARK  119  A    between atoms: _322  and  _323
REMARK  120  A    between atoms: _325  and  _327
REMARK  121  A    between atoms: _327  and  _328
REMARK  122  A    between atoms: _327  and  _330
REMARK  123  A    between atoms: _330  and  _331
REMARK  124  A    between atoms: _334  and  _336
REMARK  125  A    between atoms: _336  and  _337
REMARK  126  A    between atoms: _336  and  _339
REMARK  127  A    between atoms: _339  and  _340
REMARK  128  A    between atoms: _343  and  _345
REMARK  129  A    between atoms: _345  and  _346
REMARK  130  A    between atoms: _345  and  _348
REMARK  131  A    between atoms: _348  and  _349
REMARK  132  A    between atoms: _353  and  _354
REMARK  133  A    between atoms: _360  and  _361
REMARK  134  A    between atoms: _366  and  _368
REMARK  135  A    between atoms: _368  and  _369
REMARK  136  A    between atoms: _368  and  _371
REMARK  137  A    between atoms: _371  and  _372
REMARK  138  A    between atoms: _375  and  _377
REMARK  139  A    between atoms: _377  and  _378
REMARK  140  A    between atoms: _377  and  _380
REMARK  141  A    between atoms: _380  and  _381
REMARK  142  A    between atoms: _384  and  _386
REMARK  143  A    between atoms: _386  and  _387
REMARK  144  A    between atoms: _386  and  _389
REMARK  145  A    between atoms: _391  and  _393
REMARK  146  A    between atoms: _393  and  _394
REMARK  147  A    between atoms: _393  and  _396
REMARK  148  A    between atoms: _399  and  _401
REMARK  149  A    between atoms: _401  and  _402
REMARK  150  A    between atoms: _401  and  _404
REMARK  151  A    between atoms: _404  and  _405
REMARK  152  A    between atoms: _415  and  _417
REMARK  153  A    between atoms: _417  and  _418
REMARK  154  A    between atoms: _417  and  _420
REMARK  155  A    between atoms: _420  and  _421
REMARK  156  A    between atoms: _426  and  _428
REMARK  157  A    between atoms: _428  and  _429
REMARK  158  A    between atoms: _428  and  _431
REMARK  159  A    between atoms: _431  and  _432
REMARK  160  A    between atoms: _432  and  _433
REMARK  161  A    between atoms: _433  and  _434
REMARK                            x       y       z     vdW  Elec       q    Type
REMARK                         _______ _______ _______ _____ _____    ______ ____
ROOT
ATOM      1  C   UNK A   4     -10.223  -1.531  10.278  0.00  0.00    +0.000 C 
ATOM      2  C   UNK A   4     -10.305  -2.821  11.081  0.00  0.00    +0.000 C 
ATOM      3  O   UNK A   4     -10.948  -2.810  12.150  0.00  0.00    +0.000 OA
ATOM      4  N   VAL A   5      -9.618  -3.879  10.606  0.00  0.00    +0.000 N 
ATOM      5  CA  VAL A   5      -9.593  -5.129  11.321  0.00  0.00    +0.000 C 
ATOM      6  C   VAL A   5      -8.136  -5.604  11.544  0.00  0.00    +0.000 C 
ATOM      7  N   UNK A   6      -8.029  -6.551  12.474  0.00  0.00    +0.000 N 
ATOM      8  H   UNK A   6      -8.831  -6.726  13.112  0.00  0.00    +0.000 HD
ATOM      9  C   UNK A   6      -6.804  -7.359  12.624  0.00  0.00    +0.000 C 
ATOM     10  C   UNK A   6      -6.125  -7.109  14.023  0.00  0.00    +0.000 C 
ATOM     11  C   UNK A   6      -5.853  -5.655  14.290  0.00  0.00    +0.000 A 
ATOM     12  C   UNK A   6      -6.695  -4.639  14.667  0.00  0.00    +0.000 A 
ATOM     13  N   UNK A   6      -5.945  -3.479  14.704  0.00  0.00    +0.000 N 
ATOM     14 ZN   UNK A   6      -6.713  -1.708  15.340  0.00  0.00    +0.000 Zn
ATOM     15  N   UNK A   4      -7.455  -0.866  13.667  0.00  0.00    +0.000 N 
ATOM     16  C   UNK A   4      -7.962   0.346  13.514  0.00  0.00    +0.000 A 
ATOM     17  N   UNK A   4      -8.403   0.444  12.251  0.00  0.00    +0.000 NA
ATOM     18  C   UNK A   4      -8.226  -0.769  11.628  0.00  0.00    +0.000 A 
ATOM     19  C   UNK A   4      -7.625  -1.580  12.536  0.00  0.00    +0.000 A 
ATOM     20  C   UNK A   6      -4.681  -3.788  14.443  0.00  0.00    +0.000 A 
ATOM     21  N   UNK A   6      -4.608  -5.094  14.095  0.00  0.00    +0.000 NA
ATOM     22  O   VAL A   5      -7.195  -5.103  10.853  0.00  0.00    +0.000 OA
ATOM     23  H   VAL A   5      -9.098  -3.791   9.710  0.00  0.00    +0.000 HD
ATOM     24  C   UNK A   4      -8.762  -1.035  10.232  0.00  0.00    +0.000 C 
ENDROOT
BRANCH  14  25
ATOM     25  N   UNK A   6      -8.210  -2.460  16.635  0.00  0.00    +0.000 N 
ATOM     26  C   UNK A   6      -7.895  -3.391  17.504  0.00  0.00    +0.000 A 
ATOM     27  N   UNK A   6      -9.009  -3.758  18.128  0.00  0.00    +0.000 NA
ATOM     28  C   UNK A   6     -10.089  -3.034  17.595  0.00  0.00    +0.000 A 
ATOM     29  C   UNK A   6      -9.578  -2.232  16.604  0.00  0.00    +0.000 A 
BRANCH  29  30
ATOM     30  C   UNK A   6     -10.247  -1.243  15.678  0.00  0.00    +0.000 C 
BRANCH  30  31
ATOM     31  C   UNK A   6     -11.757  -1.507  15.596  0.00  0.00    +0.000 C 
BRANCH  31  32
ATOM     32  C   UNK A   6     -12.462  -0.335  14.919  0.00  0.00    +0.000 C 
ATOM     33  N   UNK A   4     -13.441   0.244  15.595  0.00  0.00    +0.000 N 
ATOM     34  H   UNK A   4     -13.751  -0.186  16.490  0.00  0.00    +0.000 HD
ATOM     35  O   UNK A   6     -12.076   0.032  13.754  0.00  0.00    +0.000 OA
BRANCH  33  36
ATOM     36  C   UNK A   4     -14.123   1.494  15.126  0.00  0.00    +0.000 C 
BRANCH  36  37
ATOM     37  C   UNK A   4     -13.501   2.649  15.919  0.00  0.00    +0.000 C 
ATOM     38  O   UNK A   4     -13.592   2.699  17.145  0.00  0.00    +0.000 OA
ATOM     39  N   VAL A   5     -12.748   3.526  15.200  0.00  0.00    +0.000 N 
ATOM     40  H   VAL A   5     -12.790   3.494  14.161  0.00  0.00    +0.000 HD
BRANCH  39  41
ATOM     41  CA  VAL A   5     -11.875   4.519  15.851  0.00  0.00    +0.000 C 
BRANCH  41  42
ATOM     42  C   VAL A   5     -12.593   5.881  15.866  0.00  0.00    +0.000 C 
ATOM     43  N   UNK A   6     -12.661   6.486  17.078  0.00  0.00    +0.000 N 
ATOM     44  H   UNK A   6     -12.211   6.046  17.906  0.00  0.00    +0.000 HD
ATOM     45  O   VAL A   5     -13.005   6.356  14.777  0.00  0.00    +0.000 OA
BRANCH  43  46
ATOM     46  C   UNK A   6     -13.370   7.762  17.220  0.00  0.00    +0.000 C 
BRANCH  46  47
ATOM     47  C   UNK A   6     -12.462   8.756  18.007  0.00  0.00    +0.000 C 
ATOM     48  O   UNK A   6     -11.747   8.353  18.933  0.00  0.00    +0.000 OA
ENDBRANCH  46  47
BRANCH  46  49
ATOM     49  C   UNK A   6     -14.668   7.604  18.066  0.00  0.00    +0.000 C 
BRANCH  49  50
ATOM     50  C   UNK A   6     -15.555   6.453  17.676  0.00  0.00    +0.000 A 
ATOM     51  N   UNK A   6     -15.184   5.121  17.901  0.00  0.00    +0.000 NA
ATOM     52  C   UNK A   6     -16.211   4.345  17.484  0.00  0.00    +0.000 A 
ATOM     53  N   UNK A   6     -17.148   5.092  16.895  0.00  0.00    +0.000 NA
ATOM     54  C   UNK A   6     -16.780   6.415  17.062  0.00  0.00    +0.000 A 
ENDBRANCH  49  50
ENDBRANCH  46  49
ENDBRANCH  43  46
ENDBRANCH  41  42
BRANCH  41  55
ATOM     55  CB  VAL A   5     -10.520   4.588  15.046  0.00  0.00    +0.000 C 
ATOM     56  CG2 VAL A   5      -9.607   5.669  15.658  0.00  0.00    +0.000 C 
ATOM     57  CG1 VAL A   5      -9.880   3.186  14.877  0.00  0.00    +0.000 C 
ENDBRANCH  41  55
ENDBRANCH  39  41
ENDBRANCH  36  37
BRANCH  36  58
ATOM     58  C   UNK A   4     -15.635   1.398  15.356  0.00  0.00    +0.000 C 
BRANCH  58  59
ATOM     59  C   UNK A   4     -16.272   0.322  14.471  0.00  0.00    +0.000 C 
ATOM     60  C   UNK A   4     -17.166  -0.545  15.335  0.00  0.00    +0.000 C 
ATOM     61  C   UNK A   4     -17.124   1.022  13.346  0.00  0.00    +0.000 C 
ENDBRANCH  58  59
ENDBRANCH  36  58
ENDBRANCH  33  36
ENDBRANCH  31  32
BRANCH  31  62
ATOM     62  N   UNK A   6     -11.975  -2.700  14.783  0.00  0.00    +0.000 N 
ATOM     63  C   LEU A   2     -12.604  -3.801  15.284  0.00  0.00    +0.000 C 
ATOM     64  O   LEU A   2     -13.013  -3.871  16.474  0.00  0.00    +0.000 OA
ATOM     65  H   UNK A   6     -11.642  -2.710  13.798  0.00  0.00    +0.000 HD
BRANCH  63  66
ATOM     66  CA  LEU A   2     -12.815  -4.966  14.286  0.00  0.00    +0.000 C 
BRANCH  66  67
ATOM     67  N   LEU A   2     -12.459  -6.224  14.987  0.00  0.00    +0.000 N 
ATOM     68  H   LEU A   2     -13.180  -6.689  15.574  0.00  0.00    +0.000 HD
ATOM     69  C   GLU A   1     -11.264  -6.777  14.896  0.00  0.00    +0.000 C 
ATOM     70  O   GLU A   1     -10.350  -6.382  14.151  0.00  0.00    +0.000 OA
BRANCH  69  71
ATOM     71  CA  GLU A   1     -11.066  -8.071  15.729  0.00  0.00    +0.000 C 
BRANCH  71  72
ATOM     72  N   GLU A   1     -10.565  -9.105  14.828  0.00  0.00    +0.000 NA
ATOM     73  H   GLU A   1      -9.959  -8.831  14.028  0.00  0.00    +0.000 HD
ENDBRANCH  71  72
BRANCH  71  74
ATOM     74  CB  GLU A   1     -10.098  -7.828  16.911  0.00  0.00    +0.000 C 
BRANCH  74  75
ATOM     75  CG  GLU A   1     -10.615  -6.838  17.982  0.00  0.00    +0.000 C 
BRANCH  75  76
ATOM     76  CD  GLU A   1      -9.714  -6.792  19.218  0.00  0.00    +0.000 C 
ATOM     77  OE2 GLU A   1      -9.703  -5.691  19.868  0.00  0.00    +0.000 OA
ATOM     78  OE1 GLU A   1      -9.046  -7.847  19.510  0.00  0.00    +0.000 OA
ENDBRANCH  75  76
ENDBRANCH  74  75
ENDBRANCH  71  74
ENDBRANCH  69  71
ENDBRANCH  66  67
BRANCH  66  79
ATOM     79  CB  LEU A   2     -14.324  -5.045  13.955  0.00  0.00    +0.000 C 
BRANCH  79  80
ATOM     80  CG  LEU A   2     -15.099  -3.736  13.618  0.00  0.00    +0.000 C 
ATOM     81  CD2 LEU A   2     -16.624  -4.061  13.355  0.00  0.00    +0.000 C 
ATOM     82  CD1 LEU A   2     -14.536  -3.110  12.372  0.00  0.00    +0.000 C 
ENDBRANCH  79  80
ENDBRANCH  66  79
ENDBRANCH  63  66
ENDBRANCH  31  62
ENDBRANCH  30  31
ENDBRANCH  29  30
ENDBRANCH  14  25
BRANCH   1  84
ATOM     83  C   UNK A   3     -11.664   0.476  10.209  0.00  0.00    +0.000 C 
ATOM     84  N   UNK A   4     -11.135  -0.559  10.885  0.00  0.00    +0.000 N 
ATOM     85  H   UNK A   4     -11.386  -0.675  11.888  0.00  0.00    +0.000 HD
ATOM     86  O   UNK A   3     -11.400   0.713   9.016  0.00  0.00    +0.000 OA
BRANCH  83  87
ATOM     87  C   UNK A   3     -12.615   1.326  11.042  0.00  0.00    +0.000 C 
BRANCH  87  90
ATOM     88  C   LEU A   2     -12.550   3.741  11.127  0.00  0.00    +0.000 C 
ATOM     89  O   LEU A   2     -12.595   3.802  12.348  0.00  0.00    +0.000 OA
ATOM     90  N   UNK A   3     -12.763   2.628  10.375  0.00  0.00    +0.000 N 
ATOM     91  H   UNK A   3     -13.020   2.695   9.369  0.00  0.00    +0.000 HD
BRANCH  88  92
ATOM     92  CA  LEU A   2     -12.280   5.023  10.353  0.00  0.00    +0.000 C 
BRANCH  92  94
ATOM     93  C   GLU A   1     -12.751   7.378  10.672  0.00  0.00    +0.000 C 
ATOM     94  N   LEU A   2     -12.589   6.145  11.223  0.00  0.00    +0.000 N 
ATOM     95  H   LEU A   2     -12.685   6.008  12.249  0.00  0.00    +0.000 HD
ATOM     96  O   GLU A   1     -12.626   7.601   9.460  0.00  0.00    +0.000 OA
BRANCH  93  97
ATOM     97  CA  GLU A   1     -13.022   8.580  11.636  0.00  0.00    +0.000 C 
BRANCH  97  98
ATOM     98  CB  GLU A   1     -11.690   9.265  12.131  0.00  0.00    +0.000 C 
ATOM     99  CG2 GLU A   1     -10.903   8.423  13.212  0.00  0.00    +0.000 C 
BRANCH  98 100
ATOM    100  CG1 GLU A   1     -10.820   9.649  10.925  0.00  0.00    +0.000 C 
ATOM    101  CD1 GLU A   1      -9.672  10.549  11.404  0.00  0.00    +0.000 C 
ENDBRANCH  98 100
ENDBRANCH  97  98
BRANCH  97 102
ATOM    102  N   GLU A   1     -13.917   8.221  12.739  0.00  0.00    +0.000 NA
ATOM    103  H   GLU A   1     -13.574   7.584  13.486  0.00  0.00    +0.000 HD
ENDBRANCH  97 102
ENDBRANCH  93  97
ENDBRANCH  92  94
BRANCH  92 104
ATOM    104  CB  LEU A   2     -10.860   5.051   9.803  0.00  0.00    +0.000 C 
BRANCH 104 105
ATOM    105  CG  LEU A   2      -9.762   5.166  10.932  0.00  0.00    +0.000 C 
BRANCH 105 106
ATOM    106  CD  LEU A   2      -9.035   3.803  11.217  0.00  0.00    +0.000 C 
ATOM    107  NE2 LEU A   2      -7.739   3.890  11.606  0.00  0.00    +0.000 N 
ATOM    108 HE21 LEU A   2      -7.223   3.033  11.892  0.00  0.00    +0.000 HD
ATOM    109 HE22 LEU A   2      -7.261   4.813  11.619  0.00  0.00    +0.000 HD
ATOM    110  OE1 LEU A   2      -9.632   2.712  11.192  0.00  0.00    +0.000 OA
ENDBRANCH 105 106
ENDBRANCH 104 105
ENDBRANCH  92 104
ENDBRANCH  88  92
ENDBRANCH  87  90
BRANCH  87 111
ATOM    111  C   UNK A   3     -14.006   0.656  11.266  0.00  0.00    +0.000 C 
BRANCH 111 112
ATOM    112  C   UNK A   3     -14.709   0.187  10.000  0.00  0.00    +0.000 A 
ATOM    113  C   UNK A   3     -15.874   0.860   9.593  0.00  0.00    +0.000 A 
ATOM    114  C   UNK A   3     -16.564   0.401   8.435  0.00  0.00    +0.000 A 
ATOM    115  C   UNK A   3     -16.120  -0.698   7.758  0.00  0.00    +0.000 A 
ATOM    116  C   UNK A   3     -15.007  -1.421   8.208  0.00  0.00    +0.000 A 
ATOM    117  C   UNK A   3     -14.293  -0.963   9.343  0.00  0.00    +0.000 A 
ENDBRANCH 111 112
ENDBRANCH  87 111
ENDBRANCH  83  87
ENDBRANCH   1  84
BRANCH   9 118
ATOM    118  C   UNK A   6      -7.240  -8.824  12.486  0.00  0.00    +0.000 C 
ATOM    119  O   UNK A   6      -8.310  -9.187  13.020  0.00  0.00    +0.000 OA
ENDBRANCH   9 118
BRANCH   5 120
ATOM    120  CB  VAL A   5     -10.327  -6.257  10.495  0.00  0.00    +0.000 C 
BRANCH 120 121
ATOM    121  CG  VAL A   5     -11.753  -5.931  10.183  0.00  0.00    +0.000 A 
ATOM    122  CD2 VAL A   5     -12.778  -6.585  10.830  0.00  0.00    +0.000 A 
ATOM    123  CE2 VAL A   5     -14.109  -6.390  10.517  0.00  0.00    +0.000 A 
ATOM    124  CZ  VAL A   5     -14.406  -5.495   9.441  0.00  0.00    +0.000 A 
ATOM    125  CE1 VAL A   5     -13.393  -4.869   8.739  0.00  0.00    +0.000 A 
ATOM    126  CD1 VAL A   5     -12.086  -5.133   9.099  0.00  0.00    +0.000 A 
ENDBRANCH 120 121
ENDBRANCH   5 120
TORSDOF 42
REMARK  Name = ../refined-set-2016/3sbi/3sbi_pocket.pdb
REMARK  161 active torsions:
REMARK  status: ('A' for Active; 'I' for Inactive)
REMARK    1  A    between atoms: _1  and  _3
REMARK    2  A    between atoms: _3  and  _4
REMARK    3  A    between atoms: _3  and  _6
REMARK    4  A    between atoms: _6  and  _7
REMARK    5  A    between atoms: _17  and  _19
REMARK    6  A    between atoms: _19  and  _20
REMARK    7  A    between atoms: _19  and  _22
REMARK    8  A    between atoms: _22  and  _23
REMARK    9  A    between atoms: _28  and  _29
REMARK   10  A    between atoms: _31  and  _33
REMARK   11  A    between atoms: _33  and  _34
REMARK   12  A    between atoms: _33  and  _36
REMARK   13  A    between atoms: _36  and  _37
REMARK   14  A    between atoms: _40  and  _41
REMARK   15  A    between atoms: _46  and  _48
REMARK   16  A    between atoms: _48  and  _49
REMARK   17  A    between atoms: _48  and  _51
REMARK   18  A    between atoms: _51  and  _52
REMARK   19  A    between atoms: _57  and  _59
REMARK   20  A    between atoms: _59  and  _60
REMARK   21  A    between atoms: _59  and  _62
REMARK   22  A    between atoms: _62  and  _63
REMARK   23  A    between atoms: _68  and  _70
REMARK   24  A    between atoms: _70  and  _71
REMARK   25  A    between atoms: _70  and  _73
REMARK   26  A    between atoms: _73  and  _74
REMARK   27  A    between atoms: _79  and  _81
REMARK   28  A    between atoms: _81  and  _82
REMARK   29  A    between atoms: _81  and  _84
REMARK   30  A    between atoms: _84  and  _85
REMARK   31  A    between atoms: _88  and  _90
REMARK   32  A    between atoms: _90  and  _91
REMARK   33  A    between atoms: _90  and  _93
REMARK   34  A    between atoms: _93  and  _94
REMARK   35  A    between atoms: _94  and  _95
REMARK   36  A    between atoms: _100  and  _102
REMARK   37  A    between atoms: _102  and  _103
REMARK   38  A    between atoms: _102  and  _105
REMARK   39  A    between atoms: _105  and  _106
REMARK   40  A    between atoms: _112  and  _114
REMARK   41  A    between atoms: _125  and  _128
REMARK   42  A    between atoms: _128  and  _129
REMARK   43  A    between atoms: _137  and  _138
REMARK   44  A    between atoms: _146  and  _148
REMARK   45  A    between atoms: _148  and  _149
REMARK   46  A    between atoms: _148  and  _151
REMARK   47  A    between atoms: _151  and  _152
REMARK   48  A    between atoms: _152  and  _153
REMARK   49  A    between atoms: _156  and  _158
REMARK   50  A    between atoms: _158  and  _159
REMARK   51  A    between atoms: _158  and  _161
REMARK   52  A    between atoms: _161  and  _162
REMARK   53  A    between atoms: _167  and  _169
REMARK   54  A    between atoms: _169  and  _170
REMARK   55  A    between atoms: _169  and  _172
REMARK   56  A    between atoms: _172  and  _173
REMARK   57  A    between atoms: _173  and  _174
REMARK   58  A    between atoms: _177  and  _179
REMARK   59  A    between atoms: _179  and  _180
REMARK   60  A    between atoms: _179  and  _182
REMARK   61  A    between atoms: _182  and  _183
REMARK   62  A    between atoms: _186  and  _188
REMARK   63  A    between atoms: _188  and  _189
REMARK   64  A    between atoms: _188  and  _191
REMARK   65  A    between atoms: _191  and  _192
REMARK   66  A    between atoms: _193  and  ZN_443
REMARK   67  A    between atoms: _197  and  _199
REMARK   68  A    between atoms: _199  and  _200
REMARK   69  A    between atoms: _199  and  _202
REMARK   70  A    between atoms: _202  and  _203
REMARK   71  A    between atoms: _206  and  _208
REMARK   72  A    between atoms: _208  and  _209
REMARK   73  A    between atoms: _208  and  _211
REMARK   74  A    between atoms: _214  and  _216
REMARK   75  A    between atoms: _216  and  _217
REMARK   76  A    between atoms: _216  and  _219
REMARK   77  A    between atoms: _219  and  _220
REMARK   78  A    between atoms: _225  and  _227
REMARK   79  A    between atoms: _227  and  _228
REMARK   80  A    between atoms: _227  and  _230
REMARK   81  A    between atoms: _230  and  _231
REMARK   82  A    between atoms: _237  and  _239
REMARK   83  A    between atoms: _239  and  _240
REMARK   84  A    between atoms: _242  and  _244
REMARK   85  A    between atoms: _244  and  _245
REMARK   86  A    between atoms: _244  and  _247
REMARK   87  A    between atoms: _247  and  _248
REMARK   88  A    between atoms: _248  and  _249
REMARK   89  A    between atoms: _249  and  _250
REMARK   90  A    between atoms: _250  and  _251
REMARK   91  A    between atoms: _255  and  _257
REMARK   92  A    between atoms: _257  and  _258
REMARK   93  A    between atoms: _257  and  _260
REMARK   94  A    between atoms: _263  and  _265
REMARK   95  A    between atoms: _265  and  _266
REMARK   96  A    between atoms: _265  and  _268
REMARK   97  A    between atoms: _268  and  _269
REMARK   98  A    between atoms: _269  and  _270
REMARK   99  A    between atoms: _275  and  _277
REMARK  100  A    between atoms: _277  and  _278
REMARK  101  A    between atoms: _277  and  _280
REMARK  102  A    between atoms: _280  and  _281
REMARK  103  A    between atoms: _284  and  _286
REMARK  104  A    between atoms: _286  and  _287
REMARK  105  A    between atoms: _290  and  _292
REMARK  106  A    between atoms: _292  and  _293
REMARK  107  A    between atoms: _292  and  _295
REMARK  108  A    between atoms: _298  and  _300
REMARK  109  A    between atoms: _300  and  _301
REMARK  110  A    between atoms: _300  and  _303
REMARK  111  A    between atoms: _303  and  _304
REMARK  112  A    between atoms: _307  and  _309
REMARK  113  A    between atoms: _309  and  _310
REMARK  114  A    between atoms: _312  and  _314
REMARK  115  A    between atoms: _314  and  _315
REMARK  116  A    between atoms: _317  and  _319
REMARK  117  A    between atoms: _319  and  _320
REMARK  118  A    between atoms: _319  and  _322
REMARK  119  A    between atoms: _322  and  _323
REMARK  120  A    between atoms: _325  and  _327
REMARK  121  A    between atoms: _327  and  _328
REMARK  122  A    between atoms: _327  and  _330
REMARK  123  A    between atoms: _330  and  _331
REMARK  124  A    between atoms: _334  and  _336
REMARK  125  A    between atoms: _336  and  _337
REMARK  126  A    between atoms: _336  and  _339
REMARK  127  A    between atoms: _339  and  _340
REMARK  128  A    between atoms: _343  and  _345
REMARK  129  A    between atoms: _345  and  _346
REMARK  130  A    between atoms: _345  and  _348
REMARK  131  A    between atoms: _348  and  _349
REMARK  132  A    between atoms: _353  and  _354
REMARK  133  A    between atoms: _360  and  _361
REMARK  134  A    between atoms: _366  and  _368
REMARK  135  A    between atoms: _368  and  _369
REMARK  136  A    between atoms: _368  and  _371
REMARK  137  A    between atoms: _371  and  _372
REMARK  138  A    between atoms: _375  and  _377
REMARK  139  A    between atoms: _377  and  _378
REMARK  140  A    between atoms: _377  and  _380
REMARK  141  A    between atoms: _380  and  _381
REMARK  142  A    between atoms: _384  and  _386
REMARK  143  A    between atoms: _386  and  _387
REMARK  144  A    between atoms: _386  and  _389
REMARK  145  A    between atoms: _391  and  _393
REMARK  146  A    between atoms: _393  and  _394
REMARK  147  A    between atoms: _393  and  _396
REMARK  148  A    between atoms: _399  and  _401
REMARK  149  A    between atoms: _401  and  _402
REMARK  150  A    between atoms: _401  and  _404
REMARK  151  A    between atoms: _404  and  _405
REMARK  152  A    between atoms: _415  and  _417
REMARK  153  A    between atoms: _417  and  _418
REMARK  154  A    between atoms: _417  and  _420
REMARK  155  A    between atoms: _420  and  _421
REMARK  156  A    between atoms: _426  and  _428
REMARK  157  A    between atoms: _428  and  _429
REMARK  158  A    between atoms: _428  and  _431
REMARK  159  A    between atoms: _431  and  _432
REMARK  160  A    between atoms: _432  and  _433
REMARK  161  A    between atoms: _433  and  _434
REMARK                            x       y       z     vdW  Elec       q    Type
REMARK                         _______ _______ _______ _____ _____    ______ ____
ROOT
ATOM      1  C   GLU A   1      -5.926  -8.568  21.098  0.00  0.00    +0.238 C 
ATOM      2  O   GLU A   1      -5.114  -9.153  21.901  0.00  0.00    -0.274 OA
ATOM      3  N   HIS A   2      -7.117  -8.116  21.489  0.00  0.00    -0.298 N 
ATOM      4  H   HIS A   2      -7.710  -7.534  20.863  0.00  0.00    +0.150 HD
ENDROOT
BRANCH   1   5
ATOM      5  CA  GLU A   1      -5.573  -8.387  19.613  0.00  0.00    +0.145 C 
BRANCH   5   6
ATOM      6  N   GLU A   1      -6.592  -9.087  18.820  0.00  0.00    -0.238 NA
ATOM      7  H   GLU A   1      -7.470  -8.584  18.580  0.00  0.00    +0.142 HD
ENDBRANCH   5   6
BRANCH   5   8
ATOM      8  CB  GLU A   1      -5.562  -6.913  19.197  0.00  0.00    +0.038 C 
BRANCH   8   9
ATOM      9  CG  GLU A   1      -5.089  -6.808  17.728  0.00  0.00    +0.116 C 
BRANCH   9  10
ATOM     10  CD  GLU A   1      -4.379  -5.527  17.444  0.00  0.00    +0.365 C 
ATOM     11  OE2 GLU A   1      -4.964  -4.394  17.726  0.00  0.00    -0.246 OA
ATOM     12  OE1 GLU A   1      -3.194  -5.578  16.936  0.00  0.00    -0.246 OA
ENDBRANCH   9  10
ENDBRANCH   8   9
ENDBRANCH   5   8
ENDBRANCH   1   5
BRANCH   3  13
ATOM     13  CA  HIS A   2      -7.556  -8.477  22.846  0.00  0.00    +0.143 C 
BRANCH  13  14
ATOM     14  C   HIS A   2      -7.839  -9.975  22.873  0.00  0.00    +0.227 C 
ATOM     15  O   HIS A   2      -8.198 -10.579  21.827  0.00  0.00    -0.286 OA
ENDBRANCH  13  14
BRANCH  13  16
ATOM     16  CB  HIS A   2      -8.842  -7.648  23.245  0.00  0.00    +0.075 C 
BRANCH  16  17
ATOM     17  CG  HIS A   2      -8.494  -6.193  23.392  0.00  0.00    +0.082 A 
ATOM     18  CD2 HIS A   2      -7.983  -5.495  24.447  0.00  0.00    +0.115 A 
ATOM     19  NE2 HIS A   2      -7.760  -4.187  24.038  0.00  0.00    -0.221 NA
ATOM     20  CE1 HIS A   2      -8.109  -4.103  22.741  0.00  0.00    +0.199 A 
ATOM     21  ND1 HIS A   2      -8.532  -5.305  22.330  0.00  0.00    -0.227 NA
ENDBRANCH  16  17
ENDBRANCH  13  16
ENDBRANCH   3  13
TORSDOF 9
REMARK  Name = ../refined-set-2016/3sbi/3sbi_pocket.pdb
REMARK  161 active torsions:
REMARK  status: ('A' for Active; 'I' for Inactive)
REMARK    1  A    between atoms: _1  and  _3
REMARK    2  A    between atoms: _3  and  _4
REMARK    3  A    between atoms: _3  and  _6
REMARK    4  A    between atoms: _6  and  _7
REMARK    5  A    between atoms: _17  and  _19
REMARK    6  A    between atoms: _19  and  _20
REMARK    7  A    between atoms: _19  and  _22
REMARK    8  A    between atoms: _22  and  _23
REMARK    9  A    between atoms: _28  and  _29
REMARK   10  A    between atoms: _31  and  _33
REMARK   11  A    between atoms: _33  and  _34
REMARK   12  A    between atoms: _33  and  _36
REMARK   13  A    between atoms: _36  and  _37
REMARK   14  A    between atoms: _40  and  _41
REMARK   15  A    between atoms: _46  and  _48
REMARK   16  A    between atoms: _48  and  _49
REMARK   17  A    between atoms: _48  and  _51
REMARK   18  A    between atoms: _51  and  _52
REMARK   19  A    between atoms: _57  and  _59
REMARK   20  A    between atoms: _59  and  _60
REMARK   21  A    between atoms: _59  and  _62
REMARK   22  A    between atoms: _62  and  _63
REMARK   23  A    between atoms: _68  and  _70
REMARK   24  A    between atoms: _70  and  _71
REMARK   25  A    between atoms: _70  and  _73
REMARK   26  A    between atoms: _73  and  _74
REMARK   27  A    between atoms: _79  and  _81
REMARK   28  A    between atoms: _81  and  _82
REMARK   29  A    between atoms: _81  and  _84
REMARK   30  A    between atoms: _84  and  _85
REMARK   31  A    between atoms: _88  and  _90
REMARK   32  A    between atoms: _90  and  _91
REMARK   33  A    between atoms: _90  and  _93
REMARK   34  A    between atoms: _93  and  _94
REMARK   35  A    between atoms: _94  and  _95
REMARK   36  A    between atoms: _100  and  _102
REMARK   37  A    between atoms: _102  and  _103
REMARK   38  A    between atoms: _102  and  _105
REMARK   39  A    between atoms: _105  and  _106
REMARK   40  A    between atoms: _112  and  _114
REMARK   41  A    between atoms: _125  and  _128
REMARK   42  A    between atoms: _128  and  _129
REMARK   43  A    between atoms: _137  and  _138
REMARK   44  A    between atoms: _146  and  _148
REMARK   45  A    between atoms: _148  and  _149
REMARK   46  A    between atoms: _148  and  _151
REMARK   47  A    between atoms: _151  and  _152
REMARK   48  A    between atoms: _152  and  _153
REMARK   49  A    between atoms: _156  and  _158
REMARK   50  A    between atoms: _158  and  _159
REMARK   51  A    between atoms: _158  and  _161
REMARK   52  A    between atoms: _161  and  _162
REMARK   53  A    between atoms: _167  and  _169
REMARK   54  A    between atoms: _169  and  _170
REMARK   55  A    between atoms: _169  and  _172
REMARK   56  A    between atoms: _172  and  _173
REMARK   57  A    between atoms: _173  and  _174
REMARK   58  A    between atoms: _177  and  _179
REMARK   59  A    between atoms: _179  and  _180
REMARK   60  A    between atoms: _179  and  _182
REMARK   61  A    between atoms: _182  and  _183
REMARK   62  A    between atoms: _186  and  _188
REMARK   63  A    between atoms: _188  and  _189
REMARK   64  A    between atoms: _188  and  _191
REMARK   65  A    between atoms: _191  and  _192
REMARK   66  A    between atoms: _193  and  ZN_443
REMARK   67  A    between atoms: _197  and  _199
REMARK   68  A    between atoms: _199  and  _200
REMARK   69  A    between atoms: _199  and  _202
REMARK   70  A    between atoms: _202  and  _203
REMARK   71  A    between atoms: _206  and  _208
REMARK   72  A    between atoms: _208  and  _209
REMARK   73  A    between atoms: _208  and  _211
REMARK   74  A    between atoms: _214  and  _216
REMARK   75  A    between atoms: _216  and  _217
REMARK   76  A    between atoms: _216  and  _219
REMARK   77  A    between atoms: _219  and  _220
REMARK   78  A    between atoms: _225  and  _227
REMARK   79  A    between atoms: _227  and  _228
REMARK   80  A    between atoms: _227  and  _230
REMARK   81  A    between atoms: _230  and  _231
REMARK   82  A    between atoms: _237  and  _239
REMARK   83  A    between atoms: _239  and  _240
REMARK   84  A    between atoms: _242  and  _244
REMARK   85  A    between atoms: _244  and  _245
REMARK   86  A    between atoms: _244  and  _247
REMARK   87  A    between atoms: _247  and  _248
REMARK   88  A    between atoms: _248  and  _249
REMARK   89  A    between atoms: _249  and  _250
REMARK   90  A    between atoms: _250  and  _251
REMARK   91  A    between atoms: _255  and  _257
REMARK   92  A    between atoms: _257  and  _258
REMARK   93  A    between atoms: _257  and  _260
REMARK   94  A    between atoms: _263  and  _265
REMARK   95  A    between atoms: _265  and  _266
REMARK   96  A    between atoms: _265  and  _268
REMARK   97  A    between atoms: _268  and  _269
REMARK   98  A    between atoms: _269  and  _270
REMARK   99  A    between atoms: _275  and  _277
REMARK  100  A    between atoms: _277  and  _278
REMARK  101  A    between atoms: _277  and  _280
REMARK  102  A    between atoms: _280  and  _281
REMARK  103  A    between atoms: _284  and  _286
REMARK  104  A    between atoms: _286  and  _287
REMARK  105  A    between atoms: _290  and  _292
REMARK  106  A    between atoms: _292  and  _293
REMARK  107  A    between atoms: _292  and  _295
REMARK  108  A    between atoms: _298  and  _300
REMARK  109  A    between atoms: _300  and  _301
REMARK  110  A    between atoms: _300  and  _303
REMARK  111  A    between atoms: _303  and  _304
REMARK  112  A    between atoms: _307  and  _309
REMARK  113  A    between atoms: _309  and  _310
REMARK  114  A    between atoms: _312  and  _314
REMARK  115  A    between atoms: _314  and  _315
REMARK  116  A    between atoms: _317  and  _319
REMARK  117  A    between atoms: _319  and  _320
REMARK  118  A    between atoms: _319  and  _322
REMARK  119  A    between atoms: _322  and  _323
REMARK  120  A    between atoms: _325  and  _327
REMARK  121  A    between atoms: _327  and  _328
REMARK  122  A    between atoms: _327  and  _330
REMARK  123  A    between atoms: _330  and  _331
REMARK  124  A    between atoms: _334  and  _336
REMARK  125  A    between atoms: _336  and  _337
REMARK  126  A    between atoms: _336  and  _339
REMARK  127  A    between atoms: _339  and  _340
REMARK  128  A    between atoms: _343  and  _345
REMARK  129  A    between atoms: _345  and  _346
REMARK  130  A    between atoms: _345  and  _348
REMARK  131  A    between atoms: _348  and  _349
REMARK  132  A    between atoms: _353  and  _354
REMARK  133  A    between atoms: _360  and  _361
REMARK  134  A    between atoms: _366  and  _368
REMARK  135  A    between atoms: _368  and  _369
REMARK  136  A    between atoms: _368  and  _371
REMARK  137  A    between atoms: _371  and  _372
REMARK  138  A    between atoms: _375  and  _377
REMARK  139  A    between atoms: _377  and  _378
REMARK  140  A    between atoms: _377  and  _380
REMARK  141  A    between atoms: _380  and  _381
REMARK  142  A    between atoms: _384  and  _386
REMARK  143  A    between atoms: _386  and  _387
REMARK  144  A    between atoms: _386  and  _389
REMARK  145  A    between atoms: _391  and  _393
REMARK  146  A    between atoms: _393  and  _394
REMARK  147  A    between atoms: _393  and  _396
REMARK  148  A    between atoms: _399  and  _401
REMARK  149  A    between atoms: _401  and  _402
REMARK  150  A    between atoms: _401  and  _404
REMARK  151  A    between atoms: _404  and  _405
REMARK  152  A    between atoms: _415  and  _417
REMARK  153  A    between atoms: _417  and  _418
REMARK  154  A    between atoms: _417  and  _420
REMARK  155  A    between atoms: _420  and  _421
REMARK  156  A    between atoms: _426  and  _428
REMARK  157  A    between atoms: _428  and  _429
REMARK  158  A    between atoms: _428  and  _431
REMARK  159  A    between atoms: _431  and  _432
REMARK  160  A    between atoms: _432  and  _433
REMARK  161  A    between atoms: _433  and  _434
REMARK                            x       y       z     vdW  Elec       q    Type
REMARK                         _______ _______ _______ _____ _____    ______ ____
ROOT
ATOM      1  CA  GLY A   2      -4.153  14.657  15.106  0.00  0.00    +0.176 C 
ENDROOT
BRANCH   1   4
ATOM      2  C   PHE A   1      -6.299  13.762  15.580  0.00  0.00    +0.239 C 
ATOM      3  O   PHE A   1      -5.805  13.161  16.556  0.00  0.00    -0.274 OA
ATOM      4  N   GLY A   2      -5.574  14.551  14.791  0.00  0.00    -0.296 N 
ATOM      5  H   GLY A   2      -5.998  15.065  13.992  0.00  0.00    +0.150 HD
BRANCH   2   6
ATOM      6  CA  PHE A   1      -7.751  13.482  15.200  0.00  0.00    +0.149 C 
BRANCH   6   7
ATOM      7  N   PHE A   1      -8.452  14.727  14.792  0.00  0.00    -0.238 NA
ATOM      8  H   PHE A   1      -8.877  14.803  13.846  0.00  0.00    +0.142 HD
ENDBRANCH   6   7
BRANCH   6   9
ATOM      9  CB  PHE A   1      -7.829  12.510  14.047  0.00  0.00    +0.053 C 
BRANCH   9  10
ATOM     10  CG  PHE A   1      -7.164  11.194  14.299  0.00  0.00    -0.020 A 
ATOM     11  CD2 PHE A   1      -7.869  10.143  14.974  0.00  0.00    -0.004 A 
ATOM     12  CE2 PHE A   1      -7.232   8.945  15.151  0.00  0.00    -0.000 A 
ATOM     13  CZ  PHE A   1      -5.900   8.736  14.707  0.00  0.00    -0.000 A 
ATOM     14  CE1 PHE A   1      -5.211   9.760  14.046  0.00  0.00    -0.000 A 
ATOM     15  CD1 PHE A   1      -5.834  10.985  13.908  0.00  0.00    -0.004 A 
ENDBRANCH   9  10
ENDBRANCH   6   9
ENDBRANCH   2   6
ENDBRANCH   1   4
BRANCH   1  16
ATOM     16  C   GLY A   2      -3.878  15.323  16.441  0.00  0.00    +0.243 C 
ATOM     17  O   GLY A   2      -2.847  15.055  17.069  0.00  0.00    -0.273 OA
ATOM     18  N   LYS A   3      -4.719  16.316  16.838  0.00  0.00    -0.298 N 
ATOM     19  H   LYS A   3      -5.459  16.675  16.202  0.00  0.00    +0.150 HD
BRANCH  18  20
ATOM     20  CA  LYS A   3      -4.551  16.878  18.215  0.00  0.00    +0.137 C 
BRANCH  20  21
ATOM     21  C   LYS A   3      -5.079  15.894  19.284  0.00  0.00    +0.227 C 
ATOM     22  O   LYS A   3      -4.500  15.821  20.423  0.00  0.00    -0.286 OA
ENDBRANCH  20  21
BRANCH  20  23
ATOM     23  CB  LYS A   3      -5.305  18.187  18.343  0.00  0.00    +0.028 C 
BRANCH  23  24
ATOM     24  CG  LYS A   3      -4.596  19.348  17.536  0.00  0.00    -0.000 C 
BRANCH  24  25
ATOM     25  CD  LYS A   3      -3.154  19.486  18.026  0.00  0.00    -0.024 C 
BRANCH  25  26
ATOM     26  CE  LYS A   3      -3.089  20.348  19.276  0.00  0.00    -0.086 C 
BRANCH  26  27
ATOM     27  NZ  LYS A   3      -2.823  21.711  18.743  0.00  0.00    +0.380 N 
ATOM     28  HZ1 LYS A   3      -2.760  22.385  19.533  0.00  0.00    -0.089 HD
ATOM     29  HZ2 LYS A   3      -1.926  21.707  18.217  0.00  0.00    -0.089 HD
ATOM     30  HZ3 LYS A   3      -3.598  21.991  18.108  0.00  0.00    -0.089 HD
ENDBRANCH  26  27
ENDBRANCH  25  26
ENDBRANCH  24  25
ENDBRANCH  23  24
ENDBRANCH  20  23
ENDBRANCH  18  20
ENDBRANCH   1  16
TORSDOF 13
REMARK  Name = ../refined-set-2016/3sbi/3sbi_pocket.pdb
REMARK  161 active torsions:
REMARK  status: ('A' for Active; 'I' for Inactive)
REMARK    1  A    between atoms: _1  and  _3
REMARK    2  A    between atoms: _3  and  _4
REMARK    3  A    between atoms: _3  and  _6
REMARK    4  A    between atoms: _6  and  _7
REMARK    5  A    between atoms: _17  and  _19
REMARK    6  A    between atoms: _19  and  _20
REMARK    7  A    between atoms: _19  and  _22
REMARK    8  A    between atoms: _22  and  _23
REMARK    9  A    between atoms: _28  and  _29
REMARK   10  A    between atoms: _31  and  _33
REMARK   11  A    between atoms: _33  and  _34
REMARK   12  A    between atoms: _33  and  _36
REMARK   13  A    between atoms: _36  and  _37
REMARK   14  A    between atoms: _40  and  _41
REMARK   15  A    between atoms: _46  and  _48
REMARK   16  A    between atoms: _48  and  _49
REMARK   17  A    between atoms: _48  and  _51
REMARK   18  A    between atoms: _51  and  _52
REMARK   19  A    between atoms: _57  and  _59
REMARK   20  A    between atoms: _59  and  _60
REMARK   21  A    between atoms: _59  and  _62
REMARK   22  A    between atoms: _62  and  _63
REMARK   23  A    between atoms: _68  and  _70
REMARK   24  A    between atoms: _70  and  _71
REMARK   25  A    between atoms: _70  and  _73
REMARK   26  A    between atoms: _73  and  _74
REMARK   27  A    between atoms: _79  and  _81
REMARK   28  A    between atoms: _81  and  _82
REMARK   29  A    between atoms: _81  and  _84
REMARK   30  A    between atoms: _84  and  _85
REMARK   31  A    between atoms: _88  and  _90
REMARK   32  A    between atoms: _90  and  _91
REMARK   33  A    between atoms: _90  and  _93
REMARK   34  A    between atoms: _93  and  _94
REMARK   35  A    between atoms: _94  and  _95
REMARK   36  A    between atoms: _100  and  _102
REMARK   37  A    between atoms: _102  and  _103
REMARK   38  A    between atoms: _102  and  _105
REMARK   39  A    between atoms: _105  and  _106
REMARK   40  A    between atoms: _112  and  _114
REMARK   41  A    between atoms: _125  and  _128
REMARK   42  A    between atoms: _128  and  _129
REMARK   43  A    between atoms: _137  and  _138
REMARK   44  A    between atoms: _146  and  _148
REMARK   45  A    between atoms: _148  and  _149
REMARK   46  A    between atoms: _148  and  _151
REMARK   47  A    between atoms: _151  and  _152
REMARK   48  A    between atoms: _152  and  _153
REMARK   49  A    between atoms: _156  and  _158
REMARK   50  A    between atoms: _158  and  _159
REMARK   51  A    between atoms: _158  and  _161
REMARK   52  A    between atoms: _161  and  _162
REMARK   53  A    between atoms: _167  and  _169
REMARK   54  A    between atoms: _169  and  _170
REMARK   55  A    between atoms: _169  and  _172
REMARK   56  A    between atoms: _172  and  _173
REMARK   57  A    between atoms: _173  and  _174
REMARK   58  A    between atoms: _177  and  _179
REMARK   59  A    between atoms: _179  and  _180
REMARK   60  A    between atoms: _179  and  _182
REMARK   61  A    between atoms: _182  and  _183
REMARK   62  A    between atoms: _186  and  _188
REMARK   63  A    between atoms: _188  and  _189
REMARK   64  A    between atoms: _188  and  _191
REMARK   65  A    between atoms: _191  and  _192
REMARK   66  A    between atoms: _193  and  ZN_443
REMARK   67  A    between atoms: _197  and  _199
REMARK   68  A    between atoms: _199  and  _200
REMARK   69  A    between atoms: _199  and  _202
REMARK   70  A    between atoms: _202  and  _203
REMARK   71  A    between atoms: _206  and  _208
REMARK   72  A    between atoms: _208  and  _209
REMARK   73  A    between atoms: _208  and  _211
REMARK   74  A    between atoms: _214  and  _216
REMARK   75  A    between atoms: _216  and  _217
REMARK   76  A    between atoms: _216  and  _219
REMARK   77  A    between atoms: _219  and  _220
REMARK   78  A    between atoms: _225  and  _227
REMARK   79  A    between atoms: _227  and  _228
REMARK   80  A    between atoms: _227  and  _230
REMARK   81  A    between atoms: _230  and  _231
REMARK   82  A    between atoms: _237  and  _239
REMARK   83  A    between atoms: _239  and  _240
REMARK   84  A    between atoms: _242  and  _244
REMARK   85  A    between atoms: _244  and  _245
REMARK   86  A    between atoms: _244  and  _247
REMARK   87  A    between atoms: _247  and  _248
REMARK   88  A    between atoms: _248  and  _249
REMARK   89  A    between atoms: _249  and  _250
REMARK   90  A    between atoms: _250  and  _251
REMARK   91  A    between atoms: _255  and  _257
REMARK   92  A    between atoms: _257  and  _258
REMARK   93  A    between atoms: _257  and  _260
REMARK   94  A    between atoms: _263  and  _265
REMARK   95  A    between atoms: _265  and  _266
REMARK   96  A    between atoms: _265  and  _268
REMARK   97  A    between atoms: _268  and  _269
REMARK   98  A    between atoms: _269  and  _270
REMARK   99  A    between atoms: _275  and  _277
REMARK  100  A    between atoms: _277  and  _278
REMARK  101  A    between atoms: _277  and  _280
REMARK  102  A    between atoms: _280  and  _281
REMARK  103  A    between atoms: _284  and  _286
REMARK  104  A    between atoms: _286  and  _287
REMARK  105  A    between atoms: _290  and  _292
REMARK  106  A    between atoms: _292  and  _293
REMARK  107  A    between atoms: _292  and  _295
REMARK  108  A    between atoms: _298  and  _300
REMARK  109  A    between atoms: _300  and  _301
REMARK  110  A    between atoms: _300  and  _303
REMARK  111  A    between atoms: _303  and  _304
REMARK  112  A    between atoms: _307  and  _309
REMARK  113  A    between atoms: _309  and  _310
REMARK  114  A    between atoms: _312  and  _314
REMARK  115  A    between atoms: _314  and  _315
REMARK  116  A    between atoms: _317  and  _319
REMARK  117  A    between atoms: _319  and  _320
REMARK  118  A    between atoms: _319  and  _322
REMARK  119  A    between atoms: _322  and  _323
REMARK  120  A    between atoms: _325  and  _327
REMARK  121  A    between atoms: _327  and  _328
REMARK  122  A    between atoms: _327  and  _330
REMARK  123  A    between atoms: _330  and  _331
REMARK  124  A    between atoms: _334  and  _336
REMARK  125  A    between atoms: _336  and  _337
REMARK  126  A    between atoms: _336  and  _339
REMARK  127  A    between atoms: _339  and  _340
REMARK  128  A    between atoms: _343  and  _345
REMARK  129  A    between atoms: _345  and  _346
REMARK  130  A    between atoms: _345  and  _348
REMARK  131  A    between atoms: _348  and  _349
REMARK  132  A    between atoms: _353  and  _354
REMARK  133  A    between atoms: _360  and  _361
REMARK  134  A    between atoms: _366  and  _368
REMARK  135  A    between atoms: _368  and  _369
REMARK  136  A    between atoms: _368  and  _371
REMARK  137  A    between atoms: _371  and  _372
REMARK  138  A    between atoms: _375  and  _377
REMARK  139  A    between atoms: _377  and  _378
REMARK  140  A    between atoms: _377  and  _380
REMARK  141  A    between atoms: _380  and  _381
REMARK  142  A    between atoms: _384  and  _386
REMARK  143  A    between atoms: _386  and  _387
REMARK  144  A    between atoms: _386  and  _389
REMARK  145  A    between atoms: _391  and  _393
REMARK  146  A    between atoms: _393  and  _394
REMARK  147  A    between atoms: _393  and  _396
REMARK  148  A    between atoms: _399  and  _401
REMARK  149  A    between atoms: _401  and  _402
REMARK  150  A    between atoms: _401  and  _404
REMARK  151  A    between atoms: _404  and  _405
REMARK  152  A    between atoms: _415  and  _417
REMARK  153  A    between atoms: _417  and  _418
REMARK  154  A    between atoms: _417  and  _420
REMARK  155  A    between atoms: _420  and  _421
REMARK  156  A    between atoms: _426  and  _428
REMARK  157  A    between atoms: _428  and  _429
REMARK  158  A    between atoms: _428  and  _431
REMARK  159  A    between atoms: _431  and  _432
REMARK  160  A    between atoms: _432  and  _433
REMARK  161  A    between atoms: _433  and  _434
REMARK                            x       y       z     vdW  Elec       q    Type
REMARK                         _______ _______ _______ _____ _____    ______ ____
ROOT
ATOM      1  C   VAL A   1      -2.893  11.970  20.757  0.00  0.00    +0.238 C 
ATOM      2  O   VAL A   1      -2.175  11.108  21.306  0.00  0.00    -0.274 OA
ATOM      3  N   GLN A   2      -2.773  13.322  20.972  0.00  0.00    -0.298 N 
ATOM      4  H   GLN A   2      -3.372  13.997  20.454  0.00  0.00    +0.150 HD
ENDROOT
BRANCH   1   5
ATOM      5  CA  VAL A   1      -4.003  11.517  19.804  0.00  0.00    +0.145 C 
BRANCH   5   6
ATOM      6  CB  VAL A   1      -3.326  10.793  18.613  0.00  0.00    +0.025 C 
ATOM      7  CG2 VAL A   1      -2.512  11.727  17.792  0.00  0.00    +0.002 C 
ATOM      8  CG1 VAL A   1      -4.388  10.092  17.753  0.00  0.00    +0.002 C 
ENDBRANCH   5   6
BRANCH   5   9
ATOM      9  N   VAL A   1      -4.894  12.633  19.417  0.00  0.00    -0.238 NA
ATOM     10  H   VAL A   1      -4.891  13.014  18.449  0.00  0.00    +0.142 HD
ENDBRANCH   5   9
ENDBRANCH   1   5
BRANCH   3  11
ATOM     11  CA  GLN A   2      -1.783  13.795  21.947  0.00  0.00    +0.137 C 
BRANCH  11  12
ATOM     12  C   GLN A   2      -2.320  13.935  23.324  0.00  0.00    +0.227 C 
ATOM     13  O   GLN A   2      -1.665  14.501  24.252  0.00  0.00    -0.286 OA
ENDBRANCH  11  12
BRANCH  11  14
ATOM     14  CB  GLN A   2      -1.198  15.151  21.390  0.00  0.00    +0.037 C 
BRANCH  14  15
ATOM     15  CG  GLN A   2      -0.574  14.996  20.025  0.00  0.00    +0.087 C 
BRANCH  15  16
ATOM     16  CD  GLN A   2      -0.160  16.337  19.457  0.00  0.00    +0.219 C 
ATOM     17  NE2 GLN A   2       0.713  17.023  20.196  0.00  0.00    -0.329 N 
ATOM     18 HE21 GLN A   2       1.067  16.622  21.088  0.00  0.00    +0.145 HD
ATOM     19 HE22 GLN A   2       1.039  17.959  19.880  0.00  0.00    +0.145 HD
ATOM     20  OE1 GLN A   2      -0.633  16.772  18.354  0.00  0.00    -0.275 OA
ENDBRANCH  15  16
ENDBRANCH  14  15
ENDBRANCH  11  14
ENDBRANCH   3  11
TORSDOF 8
REMARK  Name = ../refined-set-2016/3sbi/3sbi_pocket.pdb
REMARK  161 active torsions:
REMARK  status: ('A' for Active; 'I' for Inactive)
REMARK    1  A    between atoms: _1  and  _3
REMARK    2  A    between atoms: _3  and  _4
REMARK    3  A    between atoms: _3  and  _6
REMARK    4  A    between atoms: _6  and  _7
REMARK    5  A    between atoms: _17  and  _19
REMARK    6  A    between atoms: _19  and  _20
REMARK    7  A    between atoms: _19  and  _22
REMARK    8  A    between atoms: _22  and  _23
REMARK    9  A    between atoms: _28  and  _29
REMARK   10  A    between atoms: _31  and  _33
REMARK   11  A    between atoms: _33  and  _34
REMARK   12  A    between atoms: _33  and  _36
REMARK   13  A    between atoms: _36  and  _37
REMARK   14  A    between atoms: _40  and  _41
REMARK   15  A    between atoms: _46  and  _48
REMARK   16  A    between atoms: _48  and  _49
REMARK   17  A    between atoms: _48  and  _51
REMARK   18  A    between atoms: _51  and  _52
REMARK   19  A    between atoms: _57  and  _59
REMARK   20  A    between atoms: _59  and  _60
REMARK   21  A    between atoms: _59  and  _62
REMARK   22  A    between atoms: _62  and  _63
REMARK   23  A    between atoms: _68  and  _70
REMARK   24  A    between atoms: _70  and  _71
REMARK   25  A    between atoms: _70  and  _73
REMARK   26  A    between atoms: _73  and  _74
REMARK   27  A    between atoms: _79  and  _81
REMARK   28  A    between atoms: _81  and  _82
REMARK   29  A    between atoms: _81  and  _84
REMARK   30  A    between atoms: _84  and  _85
REMARK   31  A    between atoms: _88  and  _90
REMARK   32  A    between atoms: _90  and  _91
REMARK   33  A    between atoms: _90  and  _93
REMARK   34  A    between atoms: _93  and  _94
REMARK   35  A    between atoms: _94  and  _95
REMARK   36  A    between atoms: _100  and  _102
REMARK   37  A    between atoms: _102  and  _103
REMARK   38  A    between atoms: _102  and  _105
REMARK   39  A    between atoms: _105  and  _106
REMARK   40  A    between atoms: _112  and  _114
REMARK   41  A    between atoms: _125  and  _128
REMARK   42  A    between atoms: _128  and  _129
REMARK   43  A    between atoms: _137  and  _138
REMARK   44  A    between atoms: _146  and  _148
REMARK   45  A    between atoms: _148  and  _149
REMARK   46  A    between atoms: _148  and  _151
REMARK   47  A    between atoms: _151  and  _152
REMARK   48  A    between atoms: _152  and  _153
REMARK   49  A    between atoms: _156  and  _158
REMARK   50  A    between atoms: _158  and  _159
REMARK   51  A    between atoms: _158  and  _161
REMARK   52  A    between atoms: _161  and  _162
REMARK   53  A    between atoms: _167  and  _169
REMARK   54  A    between atoms: _169  and  _170
REMARK   55  A    between atoms: _169  and  _172
REMARK   56  A    between atoms: _172  and  _173
REMARK   57  A    between atoms: _173  and  _174
REMARK   58  A    between atoms: _177  and  _179
REMARK   59  A    between atoms: _179  and  _180
REMARK   60  A    between atoms: _179  and  _182
REMARK   61  A    between atoms: _182  and  _183
REMARK   62  A    between atoms: _186  and  _188
REMARK   63  A    between atoms: _188  and  _189
REMARK   64  A    between atoms: _188  and  _191
REMARK   65  A    between atoms: _191  and  _192
REMARK   66  A    between atoms: _193  and  ZN_443
REMARK   67  A    between atoms: _197  and  _199
REMARK   68  A    between atoms: _199  and  _200
REMARK   69  A    between atoms: _199  and  _202
REMARK   70  A    between atoms: _202  and  _203
REMARK   71  A    between atoms: _206  and  _208
REMARK   72  A    between atoms: _208  and  _209
REMARK   73  A    between atoms: _208  and  _211
REMARK   74  A    between atoms: _214  and  _216
REMARK   75  A    between atoms: _216  and  _217
REMARK   76  A    between atoms: _216  and  _219
REMARK   77  A    between atoms: _219  and  _220
REMARK   78  A    between atoms: _225  and  _227
REMARK   79  A    between atoms: _227  and  _228
REMARK   80  A    between atoms: _227  and  _230
REMARK   81  A    between atoms: _230  and  _231
REMARK   82  A    between atoms: _237  and  _239
REMARK   83  A    between atoms: _239  and  _240
REMARK   84  A    between atoms: _242  and  _244
REMARK   85  A    between atoms: _244  and  _245
REMARK   86  A    between atoms: _244  and  _247
REMARK   87  A    between atoms: _247  and  _248
REMARK   88  A    between atoms: _248  and  _249
REMARK   89  A    between atoms: _249  and  _250
REMARK   90  A    between atoms: _250  and  _251
REMARK   91  A    between atoms: _255  and  _257
REMARK   92  A    between atoms: _257  and  _258
REMARK   93  A    between atoms: _257  and  _260
REMARK   94  A    between atoms: _263  and  _265
REMARK   95  A    between atoms: _265  and  _266
REMARK   96  A    between atoms: _265  and  _268
REMARK   97  A    between atoms: _268  and  _269
REMARK   98  A    between atoms: _269  and  _270
REMARK   99  A    between atoms: _275  and  _277
REMARK  100  A    between atoms: _277  and  _278
REMARK  101  A    between atoms: _277  and  _280
REMARK  102  A    between atoms: _280  and  _281
REMARK  103  A    between atoms: _284  and  _286
REMARK  104  A    between atoms: _286  and  _287
REMARK  105  A    between atoms: _290  and  _292
REMARK  106  A    between atoms: _292  and  _293
REMARK  107  A    between atoms: _292  and  _295
REMARK  108  A    between atoms: _298  and  _300
REMARK  109  A    between atoms: _300  and  _301
REMARK  110  A    between atoms: _300  and  _303
REMARK  111  A    between atoms: _303  and  _304
REMARK  112  A    between atoms: _307  and  _309
REMARK  113  A    between atoms: _309  and  _310
REMARK  114  A    between atoms: _312  and  _314
REMARK  115  A    between atoms: _314  and  _315
REMARK  116  A    between atoms: _317  and  _319
REMARK  117  A    between atoms: _319  and  _320
REMARK  118  A    between atoms: _319  and  _322
REMARK  119  A    between atoms: _322  and  _323
REMARK  120  A    between atoms: _325  and  _327
REMARK  121  A    between atoms: _327  and  _328
REMARK  122  A    between atoms: _327  and  _330
REMARK  123  A    between atoms: _330  and  _331
REMARK  124  A    between atoms: _334  and  _336
REMARK  125  A    between atoms: _336  and  _337
REMARK  126  A    between atoms: _336  and  _339
REMARK  127  A    between atoms: _339  and  _340
REMARK  128  A    between atoms: _343  and  _345
REMARK  129  A    between atoms: _345  and  _346
REMARK  130  A    between atoms: _345  and  _348
REMARK  131  A    between atoms: _348  and  _349
REMARK  132  A    between atoms: _353  and  _354
REMARK  133  A    between atoms: _360  and  _361
REMARK  134  A    between atoms: _366  and  _368
REMARK  135  A    between atoms: _368  and  _369
REMARK  136  A    between atoms: _368  and  _371
REMARK  137  A    between atoms: _371  and  _372
REMARK  138  A    between atoms: _375  and  _377
REMARK  139  A    between atoms: _377  and  _378
REMARK  140  A    between atoms: _377  and  _380
REMARK  141  A    between atoms: _380  and  _381
REMARK  142  A    between atoms: _384  and  _386
REMARK  143  A    between atoms: _386  and  _387
REMARK  144  A    between atoms: _386  and  _389
REMARK  145  A    between atoms: _391  and  _393
REMARK  146  A    between atoms: _393  and  _394
REMARK  147  A    between atoms: _393  and  _396
REMARK  148  A    between atoms: _399  and  _401
REMARK  149  A    between atoms: _401  and  _402
REMARK  150  A    between atoms: _401  and  _404
REMARK  151  A    between atoms: _404  and  _405
REMARK  152  A    between atoms: _415  and  _417
REMARK  153  A    between atoms: _417  and  _418
REMARK  154  A    between atoms: _417  and  _420
REMARK  155  A    between atoms: _420  and  _421
REMARK  156  A    between atoms: _426  and  _428
REMARK  157  A    between atoms: _428  and  _429
REMARK  158  A    between atoms: _428  and  _431
REMARK  159  A    between atoms: _431  and  _432
REMARK  160  A    between atoms: _432  and  _433
REMARK  161  A    between atoms: _433  and  _434
REMARK                            x       y       z     vdW  Elec       q    Type
REMARK                         _______ _______ _______ _____ _____    ______ ____
ROOT
ATOM      1  CA  VAL A   3     -11.861   2.668  20.081  0.00  0.00    +0.149 C 
ENDROOT
BRANCH   1   3
ATOM      2  C   ALA A   2     -12.410   4.930  20.873  0.00  0.00    +0.241 C 
ATOM      3  N   VAL A   3     -11.854   3.706  21.123  0.00  0.00    -0.297 N 
ATOM      4  H   VAL A   3     -11.426   3.509  22.050  0.00  0.00    +0.150 HD
ATOM      5  O   ALA A   2     -12.801   5.271  19.748  0.00  0.00    -0.273 OA
BRANCH   2   6
ATOM      6  CA  ALA A   2     -12.346   5.929  21.952  0.00  0.00    +0.149 C 
ATOM      7  CB  ALA A   2     -13.786   6.342  22.378  0.00  0.00    +0.031 C 
BRANCH   6  10
ATOM      8  C   LEU A   1     -10.546   7.571  22.122  0.00  0.00    +0.238 C 
ATOM      9  O   LEU A   1     -10.240   7.290  23.307  0.00  0.00    -0.274 OA
ATOM     10  N   ALA A   2     -11.609   7.074  21.417  0.00  0.00    -0.297 N 
ATOM     11  H   ALA A   2     -11.889   7.505  20.513  0.00  0.00    +0.150 HD
BRANCH   8  12
ATOM     12  CA  LEU A   1      -9.692   8.545  21.351  0.00  0.00    +0.145 C 
BRANCH  12  13
ATOM     13  N   LEU A   1      -8.980   9.479  22.240  0.00  0.00    -0.238 NA
ATOM     14  H   LEU A   1      -8.370   9.122  23.003  0.00  0.00    +0.142 HD
ENDBRANCH  12  13
BRANCH  12  15
ATOM     15  CB  LEU A   1      -8.675   7.730  20.537  0.00  0.00    +0.026 C 
BRANCH  15  16
ATOM     16  CG  LEU A   1      -7.713   8.375  19.530  0.00  0.00    +0.002 C 
ATOM     17  CD2 LEU A   1      -8.410   9.427  18.675  0.00  0.00    +0.000 C 
ATOM     18  CD1 LEU A   1      -7.064   7.299  18.656  0.00  0.00    +0.000 C 
ENDBRANCH  15  16
ENDBRANCH  12  15
ENDBRANCH   8  12
ENDBRANCH   6  10
ENDBRANCH   2   6
ENDBRANCH   1   3
BRANCH   1  19
ATOM     19  C   VAL A   3     -12.868   1.588  20.566  0.00  0.00    +0.241 C 
ATOM     20  O   VAL A   3     -12.743   1.070  21.703  0.00  0.00    -0.273 OA
ATOM     21  N   LEU A   4     -13.852   1.295  19.704  0.00  0.00    -0.297 N 
ATOM     22  H   LEU A   4     -13.906   1.815  18.805  0.00  0.00    +0.150 HD
BRANCH  21  23
ATOM     23  CA  LEU A   4     -14.869   0.250  19.993  0.00  0.00    +0.149 C 
BRANCH  23  24
ATOM     24  C   LEU A   4     -14.301  -0.997  19.295  0.00  0.00    +0.241 C 
ATOM     25  N   GLY A   5     -14.022  -2.035  20.105  0.00  0.00    -0.296 N 
ATOM     26  H   GLY A   5     -14.205  -1.945  21.125  0.00  0.00    +0.150 HD
ATOM     27  O   LEU A   4     -14.196  -1.060  18.076  0.00  0.00    -0.273 OA
BRANCH  25  28
ATOM     28  CA  GLY A   5     -13.473  -3.276  19.594  0.00  0.00    +0.163 C 
BRANCH  28  29
ATOM     29  C   GLY A   5     -14.568  -4.374  19.613  0.00  0.00    +0.229 C 
ATOM     30  O   GLY A   5     -15.314  -4.527  20.613  0.00  0.00    -0.286 OA
ENDBRANCH  28  29
ENDBRANCH  25  28
ENDBRANCH  23  24
BRANCH  23  31
ATOM     31  CB  LEU A   4     -16.210   0.726  19.442  0.00  0.00    +0.029 C 
BRANCH  31  32
ATOM     32  CG  LEU A   4     -17.332  -0.306  19.533  0.00  0.00    +0.002 C 
ATOM     33  CD2 LEU A   4     -17.591  -0.632  21.003  0.00  0.00    +0.000 C 
ATOM     34  CD1 LEU A   4     -18.648   0.278  18.927  0.00  0.00    +0.000 C 
ENDBRANCH  31  32
ENDBRANCH  23  31
ENDBRANCH  21  23
ENDBRANCH   1  19
BRANCH   1  35
ATOM     35  CB  VAL A   3     -10.474   2.061  19.718  0.00  0.00    +0.027 C 
ATOM     36  CG2 VAL A   3      -9.529   3.200  19.285  0.00  0.00    +0.002 C 
ATOM     37  CG1 VAL A   3     -10.642   1.054  18.568  0.00  0.00    +0.002 C 
ENDBRANCH   1  35
TORSDOF 15
REMARK  Name = ../refined-set-2016/3sbi/3sbi_pocket.pdb
REMARK  161 active torsions:
REMARK  status: ('A' for Active; 'I' for Inactive)
REMARK    1  A    between atoms: _1  and  _3
REMARK    2  A    between atoms: _3  and  _4
REMARK    3  A    between atoms: _3  and  _6
REMARK    4  A    between atoms: _6  and  _7
REMARK    5  A    between atoms: _17  and  _19
REMARK    6  A    between atoms: _19  and  _20
REMARK    7  A    between atoms: _19  and  _22
REMARK    8  A    between atoms: _22  and  _23
REMARK    9  A    between atoms: _28  and  _29
REMARK   10  A    between atoms: _31  and  _33
REMARK   11  A    between atoms: _33  and  _34
REMARK   12  A    between atoms: _33  and  _36
REMARK   13  A    between atoms: _36  and  _37
REMARK   14  A    between atoms: _40  and  _41
REMARK   15  A    between atoms: _46  and  _48
REMARK   16  A    between atoms: _48  and  _49
REMARK   17  A    between atoms: _48  and  _51
REMARK   18  A    between atoms: _51  and  _52
REMARK   19  A    between atoms: _57  and  _59
REMARK   20  A    between atoms: _59  and  _60
REMARK   21  A    between atoms: _59  and  _62
REMARK   22  A    between atoms: _62  and  _63
REMARK   23  A    between atoms: _68  and  _70
REMARK   24  A    between atoms: _70  and  _71
REMARK   25  A    between atoms: _70  and  _73
REMARK   26  A    between atoms: _73  and  _74
REMARK   27  A    between atoms: _79  and  _81
REMARK   28  A    between atoms: _81  and  _82
REMARK   29  A    between atoms: _81  and  _84
REMARK   30  A    between atoms: _84  and  _85
REMARK   31  A    between atoms: _88  and  _90
REMARK   32  A    between atoms: _90  and  _91
REMARK   33  A    between atoms: _90  and  _93
REMARK   34  A    between atoms: _93  and  _94
REMARK   35  A    between atoms: _94  and  _95
REMARK   36  A    between atoms: _100  and  _102
REMARK   37  A    between atoms: _102  and  _103
REMARK   38  A    between atoms: _102  and  _105
REMARK   39  A    between atoms: _105  and  _106
REMARK   40  A    between atoms: _112  and  _114
REMARK   41  A    between atoms: _125  and  _128
REMARK   42  A    between atoms: _128  and  _129
REMARK   43  A    between atoms: _137  and  _138
REMARK   44  A    between atoms: _146  and  _148
REMARK   45  A    between atoms: _148  and  _149
REMARK   46  A    between atoms: _148  and  _151
REMARK   47  A    between atoms: _151  and  _152
REMARK   48  A    between atoms: _152  and  _153
REMARK   49  A    between atoms: _156  and  _158
REMARK   50  A    between atoms: _158  and  _159
REMARK   51  A    between atoms: _158  and  _161
REMARK   52  A    between atoms: _161  and  _162
REMARK   53  A    between atoms: _167  and  _169
REMARK   54  A    between atoms: _169  and  _170
REMARK   55  A    between atoms: _169  and  _172
REMARK   56  A    between atoms: _172  and  _173
REMARK   57  A    between atoms: _173  and  _174
REMARK   58  A    between atoms: _177  and  _179
REMARK   59  A    between atoms: _179  and  _180
REMARK   60  A    between atoms: _179  and  _182
REMARK   61  A    between atoms: _182  and  _183
REMARK   62  A    between atoms: _186  and  _188
REMARK   63  A    between atoms: _188  and  _189
REMARK   64  A    between atoms: _188  and  _191
REMARK   65  A    between atoms: _191  and  _192
REMARK   66  A    between atoms: _193  and  ZN_443
REMARK   67  A    between atoms: _197  and  _199
REMARK   68  A    between atoms: _199  and  _200
REMARK   69  A    between atoms: _199  and  _202
REMARK   70  A    between atoms: _202  and  _203
REMARK   71  A    between atoms: _206  and  _208
REMARK   72  A    between atoms: _208  and  _209
REMARK   73  A    between atoms: _208  and  _211
REMARK   74  A    between atoms: _214  and  _216
REMARK   75  A    between atoms: _216  and  _217
REMARK   76  A    between atoms: _216  and  _219
REMARK   77  A    between atoms: _219  and  _220
REMARK   78  A    between atoms: _225  and  _227
REMARK   79  A    between atoms: _227  and  _228
REMARK   80  A    between atoms: _227  and  _230
REMARK   81  A    between atoms: _230  and  _231
REMARK   82  A    between atoms: _237  and  _239
REMARK   83  A    between atoms: _239  and  _240
REMARK   84  A    between atoms: _242  and  _244
REMARK   85  A    between atoms: _244  and  _245
REMARK   86  A    between atoms: _244  and  _247
REMARK   87  A    between atoms: _247  and  _248
REMARK   88  A    between atoms: _248  and  _249
REMARK   89  A    between atoms: _249  and  _250
REMARK   90  A    between atoms: _250  and  _251
REMARK   91  A    between atoms: _255  and  _257
REMARK   92  A    between atoms: _257  and  _258
REMARK   93  A    between atoms: _257  and  _260
REMARK   94  A    between atoms: _263  and  _265
REMARK   95  A    between atoms: _265  and  _266
REMARK   96  A    between atoms: _265  and  _268
REMARK   97  A    between atoms: _268  and  _269
REMARK   98  A    between atoms: _269  and  _270
REMARK   99  A    between atoms: _275  and  _277
REMARK  100  A    between atoms: _277  and  _278
REMARK  101  A    between atoms: _277  and  _280
REMARK  102  A    between atoms: _280  and  _281
REMARK  103  A    between atoms: _284  and  _286
REMARK  104  A    between atoms: _286  and  _287
REMARK  105  A    between atoms: _290  and  _292
REMARK  106  A    between atoms: _292  and  _293
REMARK  107  A    between atoms: _292  and  _295
REMARK  108  A    between atoms: _298  and  _300
REMARK  109  A    between atoms: _300  and  _301
REMARK  110  A    between atoms: _300  and  _303
REMARK  111  A    between atoms: _303  and  _304
REMARK  112  A    between atoms: _307  and  _309
REMARK  113  A    between atoms: _309  and  _310
REMARK  114  A    between atoms: _312  and  _314
REMARK  115  A    between atoms: _314  and  _315
REMARK  116  A    between atoms: _317  and  _319
REMARK  117  A    between atoms: _319  and  _320
REMARK  118  A    between atoms: _319  and  _322
REMARK  119  A    between atoms: _322  and  _323
REMARK  120  A    between atoms: _325  and  _327
REMARK  121  A    between atoms: _327  and  _328
REMARK  122  A    between atoms: _327  and  _330
REMARK  123  A    between atoms: _330  and  _331
REMARK  124  A    between atoms: _334  and  _336
REMARK  125  A    between atoms: _336  and  _337
REMARK  126  A    between atoms: _336  and  _339
REMARK  127  A    between atoms: _339  and  _340
REMARK  128  A    between atoms: _343  and  _345
REMARK  129  A    between atoms: _345  and  _346
REMARK  130  A    between atoms: _345  and  _348
REMARK  131  A    between atoms: _348  and  _349
REMARK  132  A    between atoms: _353  and  _354
REMARK  133  A    between atoms: _360  and  _361
REMARK  134  A    between atoms: _366  and  _368
REMARK  135  A    between atoms: _368  and  _369
REMARK  136  A    between atoms: _368  and  _371
REMARK  137  A    between atoms: _371  and  _372
REMARK  138  A    between atoms: _375  and  _377
REMARK  139  A    between atoms: _377  and  _378
REMARK  140  A    between atoms: _377  and  _380
REMARK  141  A    between atoms: _380  and  _381
REMARK  142  A    between atoms: _384  and  _386
REMARK  143  A    between atoms: _386  and  _387
REMARK  144  A    between atoms: _386  and  _389
REMARK  145  A    between atoms: _391  and  _393
REMARK  146  A    between atoms: _393  and  _394
REMARK  147  A    between atoms: _393  and  _396
REMARK  148  A    between atoms: _399  and  _401
REMARK  149  A    between atoms: _401  and  _402
REMARK  150  A    between atoms: _401  and  _404
REMARK  151  A    between atoms: _404  and  _405
REMARK  152  A    between atoms: _415  and  _417
REMARK  153  A    between atoms: _417  and  _418
REMARK  154  A    between atoms: _417  and  _420
REMARK  155  A    between atoms: _420  and  _421
REMARK  156  A    between atoms: _426  and  _428
REMARK  157  A    between atoms: _428  and  _429
REMARK  158  A    between atoms: _428  and  _431
REMARK  159  A    between atoms: _431  and  _432
REMARK  160  A    between atoms: _432  and  _433
REMARK  161  A    between atoms: _433  and  _434
REMARK                            x       y       z     vdW  Elec       q    Type
REMARK                         _______ _______ _______ _____ _____    ______ ____
ROOT
ATOM      1  CA  THR A   5       0.265   0.007  16.159  0.00  0.00    +0.176 C 
ENDROOT
BRANCH   1   2
ATOM      2  C   THR A   5       1.051   1.277  16.441  0.00  0.00    +0.246 C 
ATOM      3  O   THR A   5       0.529   2.186  17.021  0.00  0.00    -0.273 OA
ATOM      4  N   PRO A   6       2.319   1.326  15.994  0.00  0.00    -0.272 N 
ATOM      5  CA  PRO A   6       3.077   2.619  16.048  0.00  0.00    +0.152 C 
ATOM      6  CB  PRO A   6       4.281   2.319  15.072  0.00  0.00    +0.031 C 
ATOM      7  CG  PRO A   6       4.551   0.855  15.349  0.00  0.00    +0.024 C 
ATOM      8  CD  PRO A   6       3.129   0.231  15.367  0.00  0.00    +0.094 C 
BRANCH   5   9
ATOM      9  C   PRO A   6       2.164   3.738  15.511  0.00  0.00    +0.244 C 
ATOM     10  N   PRO A   7       2.201   4.921  16.116  0.00  0.00    -0.272 N 
ATOM     11  CA  PRO A   7       3.103   5.350  17.249  0.00  0.00    +0.152 C 
ATOM     12  CB  PRO A   7       3.147   6.895  17.081  0.00  0.00    +0.031 C 
ATOM     13  CG  PRO A   7       1.706   7.217  16.558  0.00  0.00    +0.024 C 
ATOM     14  CD  PRO A   7       1.360   6.055  15.602  0.00  0.00    +0.094 C 
ATOM     15  O   PRO A   6       1.452   3.529  14.478  0.00  0.00    -0.273 OA
BRANCH  11  16
ATOM     16  C   PRO A   7       2.771   4.884  18.694  0.00  0.00    +0.241 C 
ATOM     17  O   PRO A   7       3.438   5.344  19.607  0.00  0.00    -0.273 OA
ATOM     18  N   LEU A   8       1.781   3.979  18.844  0.00  0.00    -0.297 N 
ATOM     19  H   LEU A   8       1.168   3.732  18.041  0.00  0.00    +0.150 HD
BRANCH  18  20
ATOM     20  CA  LEU A   8       1.582   3.352  20.143  0.00  0.00    +0.149 C 
BRANCH  20  21
ATOM     21  C   LEU A   8       1.150   4.383  21.245  0.00  0.00    +0.241 C 
ATOM     22  O   LEU A   8       1.335   4.084  22.442  0.00  0.00    -0.273 OA
ATOM     23  N   LEU A   9       0.583   5.519  20.817  0.00  0.00    -0.298 N 
ATOM     24  H   LEU A   9       0.346   5.634  19.811  0.00  0.00    +0.150 HD
BRANCH  23  25
ATOM     25  CA  LEU A   9       0.296   6.598  21.762  0.00  0.00    +0.137 C 
BRANCH  25  26
ATOM     26  C   LEU A   9      -0.748   6.170  22.824  0.00  0.00    +0.227 C 
ATOM     27  O   LEU A   9      -1.727   5.432  22.497  0.00  0.00    -0.286 OA
ENDBRANCH  25  26
BRANCH  25  28
ATOM     28  CB  LEU A   9      -0.200   7.838  20.980  0.00  0.00    +0.028 C 
BRANCH  28  29
ATOM     29  CG  LEU A   9       0.880   8.413  20.057  0.00  0.00    +0.002 C 
ATOM     30  CD2 LEU A   9       2.129   9.042  20.796  0.00  0.00    +0.000 C 
ATOM     31  CD1 LEU A   9       0.246   9.506  19.102  0.00  0.00    +0.000 C 
ENDBRANCH  28  29
ENDBRANCH  25  28
ENDBRANCH  23  25
ENDBRANCH  20  21
BRANCH  20  32
ATOM     32  CB  LEU A   8       2.765   2.492  20.566  0.00  0.00    +0.029 C 
BRANCH  32  33
ATOM     33  CG  LEU A   8       3.044   1.318  19.563  0.00  0.00    +0.002 C 
ATOM     34  CD2 LEU A   8       4.374   0.682  20.012  0.00  0.00    +0.000 C 
ATOM     35  CD1 LEU A   8       1.946   0.203  19.626  0.00  0.00    +0.000 C 
ENDBRANCH  32  33
ENDBRANCH  20  32
ENDBRANCH  18  20
ENDBRANCH  11  16
ENDBRANCH   5   9
ENDBRANCH   1   2
BRANCH   1  38
ATOM     36  C   THR A   4      -0.989  -1.149  17.881  0.00  0.00    +0.243 C 
ATOM     37  O   THR A   4      -0.409  -2.238  17.689  0.00  0.00    -0.273 OA
ATOM     38  N   THR A   5      -0.847  -0.074  17.066  0.00  0.00    -0.295 N 
ATOM     39  H   THR A   5      -1.546   0.695  17.098  0.00  0.00    +0.150 HD
BRANCH  36  40
ATOM     40  CA  THR A   4      -1.994  -1.026  19.046  0.00  0.00    +0.176 C 
BRANCH  40  43
ATOM     41  C   LEU A   3      -2.268   1.238  19.870  0.00  0.00    +0.241 C 
ATOM     42  O   LEU A   3      -1.200   1.095  20.581  0.00  0.00    -0.273 OA
ATOM     43  N   THR A   4      -2.698   0.256  19.051  0.00  0.00    -0.295 N 
ATOM     44  H   THR A   4      -3.519   0.409  18.431  0.00  0.00    +0.150 HD
BRANCH  41  45
ATOM     45  CA  LEU A   3      -3.012   2.592  19.858  0.00  0.00    +0.149 C 
BRANCH  45  48
ATOM     46  C   SER A   2      -3.506   2.413  22.213  0.00  0.00    +0.243 C 
ATOM     47  O   SER A   2      -4.256   1.420  22.039  0.00  0.00    -0.273 OA
ATOM     48  N   LEU A   3      -2.955   3.115  21.206  0.00  0.00    -0.297 N 
ATOM     49  H   LEU A   3      -2.492   4.027  21.395  0.00  0.00    +0.150 HD
BRANCH  46  50
ATOM     50  CA  SER A   2      -3.060   2.808  23.673  0.00  0.00    +0.178 C 
BRANCH  50  53
ATOM     51  C   GLY A   1      -4.306   2.857  25.736  0.00  0.00    +0.240 C 
ATOM     52  O   GLY A   1      -4.218   4.089  25.867  0.00  0.00    -0.274 OA
ATOM     53  N   SER A   2      -3.882   2.157  24.664  0.00  0.00    -0.295 N 
ATOM     54  H   SER A   2      -4.145   1.157  24.553  0.00  0.00    +0.150 HD
BRANCH  51  55
ATOM     55  CA  GLY A   1      -4.849   1.967  26.837  0.00  0.00    +0.169 C 
BRANCH  55  56
ATOM     56  N   GLY A   1      -5.947   2.624  27.545  0.00  0.00    -0.236 NA
ATOM     57  H   GLY A   1      -6.529   3.337  27.061  0.00  0.00    +0.142 HD
ENDBRANCH  55  56
ENDBRANCH  51  55
ENDBRANCH  50  53
BRANCH  50  58
ATOM     58  CB  SER A   2      -1.543   2.407  23.817  0.00  0.00    +0.166 C 
BRANCH  58  59
ATOM     59  OG  SER A   2      -1.342   1.060  23.387  0.00  0.00    -0.380 OA
ATOM     60  H   SER A   2      -1.610   0.974  22.438  0.00  0.00    +0.211 HD
ENDBRANCH  58  59
ENDBRANCH  50  58
ENDBRANCH  46  50
ENDBRANCH  45  48
BRANCH  45  61
ATOM     61  CB  LEU A   3      -2.254   3.518  18.909  0.00  0.00    +0.029 C 
BRANCH  61  62
ATOM     62  CG  LEU A   3      -2.811   4.931  18.837  0.00  0.00    +0.002 C 
ATOM     63  CD2 LEU A   3      -4.236   4.999  18.403  0.00  0.00    +0.000 C 
ATOM     64  CD1 LEU A   3      -1.922   5.737  17.817  0.00  0.00    +0.000 C 
ENDBRANCH  61  62
ENDBRANCH  45  61
ENDBRANCH  41  45
ENDBRANCH  40  43
BRANCH  40  65
ATOM     65  CB  THR A   4      -3.033  -2.162  18.977  0.00  0.00    +0.137 C 
ATOM     66  CG2 THR A   4      -4.049  -2.127  20.033  0.00  0.00    +0.034 C 
BRANCH  65  67
ATOM     67  OG1 THR A   4      -3.592  -2.151  17.653  0.00  0.00    -0.382 OA
ATOM     68  HG1 THR A   4      -4.266  -2.872  17.575  0.00  0.00    +0.210 HD
ENDBRANCH  65  67
ENDBRANCH  40  65
ENDBRANCH  36  40
ENDBRANCH   1  38
BRANCH   1  69
ATOM     69  CB  THR A   5      -0.179   0.046  14.636  0.00  0.00    +0.137 C 
ATOM     70  CG2 THR A   5      -1.153  -1.041  14.304  0.00  0.00    +0.034 C 
BRANCH  69  71
ATOM     71  OG1 THR A   5      -0.776   1.307  14.311  0.00  0.00    -0.382 OA
ATOM     72  HG1 THR A   5      -1.044   1.308  13.358  0.00  0.00    +0.210 HD
ENDBRANCH  69  71
ENDBRANCH   1  69
TORSDOF 28
REMARK  Name = ../refined-set-2016/3sbi/3sbi_pocket.pdb
REMARK  161 active torsions:
REMARK  status: ('A' for Active; 'I' for Inactive)
REMARK    1  A    between atoms: _1  and  _3
REMARK    2  A    between atoms: _3  and  _4
REMARK    3  A    between atoms: _3  and  _6
REMARK    4  A    between atoms: _6  and  _7
REMARK    5  A    between atoms: _17  and  _19
REMARK    6  A    between atoms: _19  and  _20
REMARK    7  A    between atoms: _19  and  _22
REMARK    8  A    between atoms: _22  and  _23
REMARK    9  A    between atoms: _28  and  _29
REMARK   10  A    between atoms: _31  and  _33
REMARK   11  A    between atoms: _33  and  _34
REMARK   12  A    between atoms: _33  and  _36
REMARK   13  A    between atoms: _36  and  _37
REMARK   14  A    between atoms: _40  and  _41
REMARK   15  A    between atoms: _46  and  _48
REMARK   16  A    between atoms: _48  and  _49
REMARK   17  A    between atoms: _48  and  _51
REMARK   18  A    between atoms: _51  and  _52
REMARK   19  A    between atoms: _57  and  _59
REMARK   20  A    between atoms: _59  and  _60
REMARK   21  A    between atoms: _59  and  _62
REMARK   22  A    between atoms: _62  and  _63
REMARK   23  A    between atoms: _68  and  _70
REMARK   24  A    between atoms: _70  and  _71
REMARK   25  A    between atoms: _70  and  _73
REMARK   26  A    between atoms: _73  and  _74
REMARK   27  A    between atoms: _79  and  _81
REMARK   28  A    between atoms: _81  and  _82
REMARK   29  A    between atoms: _81  and  _84
REMARK   30  A    between atoms: _84  and  _85
REMARK   31  A    between atoms: _88  and  _90
REMARK   32  A    between atoms: _90  and  _91
REMARK   33  A    between atoms: _90  and  _93
REMARK   34  A    between atoms: _93  and  _94
REMARK   35  A    between atoms: _94  and  _95
REMARK   36  A    between atoms: _100  and  _102
REMARK   37  A    between atoms: _102  and  _103
REMARK   38  A    between atoms: _102  and  _105
REMARK   39  A    between atoms: _105  and  _106
REMARK   40  A    between atoms: _112  and  _114
REMARK   41  A    between atoms: _125  and  _128
REMARK   42  A    between atoms: _128  and  _129
REMARK   43  A    between atoms: _137  and  _138
REMARK   44  A    between atoms: _146  and  _148
REMARK   45  A    between atoms: _148  and  _149
REMARK   46  A    between atoms: _148  and  _151
REMARK   47  A    between atoms: _151  and  _152
REMARK   48  A    between atoms: _152  and  _153
REMARK   49  A    between atoms: _156  and  _158
REMARK   50  A    between atoms: _158  and  _159
REMARK   51  A    between atoms: _158  and  _161
REMARK   52  A    between atoms: _161  and  _162
REMARK   53  A    between atoms: _167  and  _169
REMARK   54  A    between atoms: _169  and  _170
REMARK   55  A    between atoms: _169  and  _172
REMARK   56  A    between atoms: _172  and  _173
REMARK   57  A    between atoms: _173  and  _174
REMARK   58  A    between atoms: _177  and  _179
REMARK   59  A    between atoms: _179  and  _180
REMARK   60  A    between atoms: _179  and  _182
REMARK   61  A    between atoms: _182  and  _183
REMARK   62  A    between atoms: _186  and  _188
REMARK   63  A    between atoms: _188  and  _189
REMARK   64  A    between atoms: _188  and  _191
REMARK   65  A    between atoms: _191  and  _192
REMARK   66  A    between atoms: _193  and  ZN_443
REMARK   67  A    between atoms: _197  and  _199
REMARK   68  A    between atoms: _199  and  _200
REMARK   69  A    between atoms: _199  and  _202
REMARK   70  A    between atoms: _202  and  _203
REMARK   71  A    between atoms: _206  and  _208
REMARK   72  A    between atoms: _208  and  _209
REMARK   73  A    between atoms: _208  and  _211
REMARK   74  A    between atoms: _214  and  _216
REMARK   75  A    between atoms: _216  and  _217
REMARK   76  A    between atoms: _216  and  _219
REMARK   77  A    between atoms: _219  and  _220
REMARK   78  A    between atoms: _225  and  _227
REMARK   79  A    between atoms: _227  and  _228
REMARK   80  A    between atoms: _227  and  _230
REMARK   81  A    between atoms: _230  and  _231
REMARK   82  A    between atoms: _237  and  _239
REMARK   83  A    between atoms: _239  and  _240
REMARK   84  A    between atoms: _242  and  _244
REMARK   85  A    between atoms: _244  and  _245
REMARK   86  A    between atoms: _244  and  _247
REMARK   87  A    between atoms: _247  and  _248
REMARK   88  A    between atoms: _248  and  _249
REMARK   89  A    between atoms: _249  and  _250
REMARK   90  A    between atoms: _250  and  _251
REMARK   91  A    between atoms: _255  and  _257
REMARK   92  A    between atoms: _257  and  _258
REMARK   93  A    between atoms: _257  and  _260
REMARK   94  A    between atoms: _263  and  _265
REMARK   95  A    between atoms: _265  and  _266
REMARK   96  A    between atoms: _265  and  _268
REMARK   97  A    between atoms: _268  and  _269
REMARK   98  A    between atoms: _269  and  _270
REMARK   99  A    between atoms: _275  and  _277
REMARK  100  A    between atoms: _277  and  _278
REMARK  101  A    between atoms: _277  and  _280
REMARK  102  A    between atoms: _280  and  _281
REMARK  103  A    between atoms: _284  and  _286
REMARK  104  A    between atoms: _286  and  _287
REMARK  105  A    between atoms: _290  and  _292
REMARK  106  A    between atoms: _292  and  _293
REMARK  107  A    between atoms: _292  and  _295
REMARK  108  A    between atoms: _298  and  _300
REMARK  109  A    between atoms: _300  and  _301
REMARK  110  A    between atoms: _300  and  _303
REMARK  111  A    between atoms: _303  and  _304
REMARK  112  A    between atoms: _307  and  _309
REMARK  113  A    between atoms: _309  and  _310
REMARK  114  A    between atoms: _312  and  _314
REMARK  115  A    between atoms: _314  and  _315
REMARK  116  A    between atoms: _317  and  _319
REMARK  117  A    between atoms: _319  and  _320
REMARK  118  A    between atoms: _319  and  _322
REMARK  119  A    between atoms: _322  and  _323
REMARK  120  A    between atoms: _325  and  _327
REMARK  121  A    between atoms: _327  and  _328
REMARK  122  A    between atoms: _327  and  _330
REMARK  123  A    between atoms: _330  and  _331
REMARK  124  A    between atoms: _334  and  _336
REMARK  125  A    between atoms: _336  and  _337
REMARK  126  A    between atoms: _336  and  _339
REMARK  127  A    between atoms: _339  and  _340
REMARK  128  A    between atoms: _343  and  _345
REMARK  129  A    between atoms: _345  and  _346
REMARK  130  A    between atoms: _345  and  _348
REMARK  131  A    between atoms: _348  and  _349
REMARK  132  A    between atoms: _353  and  _354
REMARK  133  A    between atoms: _360  and  _361
REMARK  134  A    between atoms: _366  and  _368
REMARK  135  A    between atoms: _368  and  _369
REMARK  136  A    between atoms: _368  and  _371
REMARK  137  A    between atoms: _371  and  _372
REMARK  138  A    between atoms: _375  and  _377
REMARK  139  A    between atoms: _377  and  _378
REMARK  140  A    between atoms: _377  and  _380
REMARK  141  A    between atoms: _380  and  _381
REMARK  142  A    between atoms: _384  and  _386
REMARK  143  A    between atoms: _386  and  _387
REMARK  144  A    between atoms: _386  and  _389
REMARK  145  A    between atoms: _391  and  _393
REMARK  146  A    between atoms: _393  and  _394
REMARK  147  A    between atoms: _393  and  _396
REMARK  148  A    between atoms: _399  and  _401
REMARK  149  A    between atoms: _401  and  _402
REMARK  150  A    between atoms: _401  and  _404
REMARK  151  A    between atoms: _404  and  _405
REMARK  152  A    between atoms: _415  and  _417
REMARK  153  A    between atoms: _417  and  _418
REMARK  154  A    between atoms: _417  and  _420
REMARK  155  A    between atoms: _420  and  _421
REMARK  156  A    between atoms: _426  and  _428
REMARK  157  A    between atoms: _428  and  _429
REMARK  158  A    between atoms: _428  and  _431
REMARK  159  A    between atoms: _431  and  _432
REMARK  160  A    between atoms: _432  and  _433
REMARK  161  A    between atoms: _433  and  _434
REMARK                            x       y       z     vdW  Elec       q    Type
REMARK                         _______ _______ _______ _____ _____    ______ ____
ROOT
ATOM      1  C   CYS A   1      -5.880   7.501  24.026  0.00  0.00    +0.239 C 
ATOM      2  N   VAL A   2      -6.019   6.177  24.300  0.00  0.00    -0.298 N 
ATOM      3  H   VAL A   2      -5.234   5.653  24.737  0.00  0.00    +0.150 HD
ATOM      4  O   CYS A   1      -6.856   8.208  23.654  0.00  0.00    -0.274 OA
ENDROOT
BRANCH   1   5
ATOM      5  CA  CYS A   1      -4.506   8.127  24.146  0.00  0.00    +0.156 C 
BRANCH   5   6
ATOM      6  N   CYS A   1      -3.433   7.154  24.308  0.00  0.00    -0.237 NA
ATOM      7  H   CYS A   1      -3.353   6.385  23.612  0.00  0.00    +0.142 HD
ENDBRANCH   5   6
BRANCH   5   8
ATOM      8  CB  CYS A   1      -4.226   9.006  22.915  0.00  0.00    +0.095 C 
ATOM      9  SG  CYS A   1      -4.186   8.010  21.351  0.00  0.00    -0.080 S 
ENDBRANCH   5   8
ENDBRANCH   1   5
BRANCH   2  10
ATOM     10  CA  VAL A   2      -7.279   5.480  23.980  0.00  0.00    +0.137 C 
BRANCH  10  11
ATOM     11  CB  VAL A   2      -6.982   4.235  23.119  0.00  0.00    +0.026 C 
ATOM     12  CG2 VAL A   2      -8.324   3.553  22.760  0.00  0.00    +0.002 C 
ATOM     13  CG1 VAL A   2      -6.161   4.675  21.804  0.00  0.00    +0.002 C 
ENDBRANCH  10  11
BRANCH  10  14
ATOM     14  C   VAL A   2      -8.058   5.036  25.221  0.00  0.00    +0.227 C 
ATOM     15  O   VAL A   2      -7.479   4.405  26.099  0.00  0.00    -0.286 OA
ENDBRANCH  10  14
ENDBRANCH   2  10
TORSDOF 6
REMARK  Name = ../refined-set-2016/3sbi/3sbi_pocket.pdb
REMARK  161 active torsions:
REMARK  status: ('A' for Active; 'I' for Inactive)
REMARK    1  A    between atoms: _1  and  _3
REMARK    2  A    between atoms: _3  and  _4
REMARK    3  A    between atoms: _3  and  _6
REMARK    4  A    between atoms: _6  and  _7
REMARK    5  A    between atoms: _17  and  _19
REMARK    6  A    between atoms: _19  and  _20
REMARK    7  A    between atoms: _19  and  _22
REMARK    8  A    between atoms: _22  and  _23
REMARK    9  A    between atoms: _28  and  _29
REMARK   10  A    between atoms: _31  and  _33
REMARK   11  A    between atoms: _33  and  _34
REMARK   12  A    between atoms: _33  and  _36
REMARK   13  A    between atoms: _36  and  _37
REMARK   14  A    between atoms: _40  and  _41
REMARK   15  A    between atoms: _46  and  _48
REMARK   16  A    between atoms: _48  and  _49
REMARK   17  A    between atoms: _48  and  _51
REMARK   18  A    between atoms: _51  and  _52
REMARK   19  A    between atoms: _57  and  _59
REMARK   20  A    between atoms: _59  and  _60
REMARK   21  A    between atoms: _59  and  _62
REMARK   22  A    between atoms: _62  and  _63
REMARK   23  A    between atoms: _68  and  _70
REMARK   24  A    between atoms: _70  and  _71
REMARK   25  A    between atoms: _70  and  _73
REMARK   26  A    between atoms: _73  and  _74
REMARK   27  A    between atoms: _79  and  _81
REMARK   28  A    between atoms: _81  and  _82
REMARK   29  A    between atoms: _81  and  _84
REMARK   30  A    between atoms: _84  and  _85
REMARK   31  A    between atoms: _88  and  _90
REMARK   32  A    between atoms: _90  and  _91
REMARK   33  A    between atoms: _90  and  _93
REMARK   34  A    between atoms: _93  and  _94
REMARK   35  A    between atoms: _94  and  _95
REMARK   36  A    between atoms: _100  and  _102
REMARK   37  A    between atoms: _102  and  _103
REMARK   38  A    between atoms: _102  and  _105
REMARK   39  A    between atoms: _105  and  _106
REMARK   40  A    between atoms: _112  and  _114
REMARK   41  A    between atoms: _125  and  _128
REMARK   42  A    between atoms: _128  and  _129
REMARK   43  A    between atoms: _137  and  _138
REMARK   44  A    between atoms: _146  and  _148
REMARK   45  A    between atoms: _148  and  _149
REMARK   46  A    between atoms: _148  and  _151
REMARK   47  A    between atoms: _151  and  _152
REMARK   48  A    between atoms: _152  and  _153
REMARK   49  A    between atoms: _156  and  _158
REMARK   50  A    between atoms: _158  and  _159
REMARK   51  A    between atoms: _158  and  _161
REMARK   52  A    between atoms: _161  and  _162
REMARK   53  A    between atoms: _167  and  _169
REMARK   54  A    between atoms: _169  and  _170
REMARK   55  A    between atoms: _169  and  _172
REMARK   56  A    between atoms: _172  and  _173
REMARK   57  A    between atoms: _173  and  _174
REMARK   58  A    between atoms: _177  and  _179
REMARK   59  A    between atoms: _179  and  _180
REMARK   60  A    between atoms: _179  and  _182
REMARK   61  A    between atoms: _182  and  _183
REMARK   62  A    between atoms: _186  and  _188
REMARK   63  A    between atoms: _188  and  _189
REMARK   64  A    between atoms: _188  and  _191
REMARK   65  A    between atoms: _191  and  _192
REMARK   66  A    between atoms: _193  and  ZN_443
REMARK   67  A    between atoms: _197  and  _199
REMARK   68  A    between atoms: _199  and  _200
REMARK   69  A    between atoms: _199  and  _202
REMARK   70  A    between atoms: _202  and  _203
REMARK   71  A    between atoms: _206  and  _208
REMARK   72  A    between atoms: _208  and  _209
REMARK   73  A    between atoms: _208  and  _211
REMARK   74  A    between atoms: _214  and  _216
REMARK   75  A    between atoms: _216  and  _217
REMARK   76  A    between atoms: _216  and  _219
REMARK   77  A    between atoms: _219  and  _220
REMARK   78  A    between atoms: _225  and  _227
REMARK   79  A    between atoms: _227  and  _228
REMARK   80  A    between atoms: _227  and  _230
REMARK   81  A    between atoms: _230  and  _231
REMARK   82  A    between atoms: _237  and  _239
REMARK   83  A    between atoms: _239  and  _240
REMARK   84  A    between atoms: _242  and  _244
REMARK   85  A    between atoms: _244  and  _245
REMARK   86  A    between atoms: _244  and  _247
REMARK   87  A    between atoms: _247  and  _248
REMARK   88  A    between atoms: _248  and  _249
REMARK   89  A    between atoms: _249  and  _250
REMARK   90  A    between atoms: _250  and  _251
REMARK   91  A    between atoms: _255  and  _257
REMARK   92  A    between atoms: _257  and  _258
REMARK   93  A    between atoms: _257  and  _260
REMARK   94  A    between atoms: _263  and  _265
REMARK   95  A    between atoms: _265  and  _266
REMARK   96  A    between atoms: _265  and  _268
REMARK   97  A    between atoms: _268  and  _269
REMARK   98  A    between atoms: _269  and  _270
REMARK   99  A    between atoms: _275  and  _277
REMARK  100  A    between atoms: _277  and  _278
REMARK  101  A    between atoms: _277  and  _280
REMARK  102  A    between atoms: _280  and  _281
REMARK  103  A    between atoms: _284  and  _286
REMARK  104  A    between atoms: _286  and  _287
REMARK  105  A    between atoms: _290  and  _292
REMARK  106  A    between atoms: _292  and  _293
REMARK  107  A    between atoms: _292  and  _295
REMARK  108  A    between atoms: _298  and  _300
REMARK  109  A    between atoms: _300  and  _301
REMARK  110  A    between atoms: _300  and  _303
REMARK  111  A    between atoms: _303  and  _304
REMARK  112  A    between atoms: _307  and  _309
REMARK  113  A    between atoms: _309  and  _310
REMARK  114  A    between atoms: _312  and  _314
REMARK  115  A    between atoms: _314  and  _315
REMARK  116  A    between atoms: _317  and  _319
REMARK  117  A    between atoms: _319  and  _320
REMARK  118  A    between atoms: _319  and  _322
REMARK  119  A    between atoms: _322  and  _323
REMARK  120  A    between atoms: _325  and  _327
REMARK  121  A    between atoms: _327  and  _328
REMARK  122  A    between atoms: _327  and  _330
REMARK  123  A    between atoms: _330  and  _331
REMARK  124  A    between atoms: _334  and  _336
REMARK  125  A    between atoms: _336  and  _337
REMARK  126  A    between atoms: _336  and  _339
REMARK  127  A    between atoms: _339  and  _340
REMARK  128  A    between atoms: _343  and  _345
REMARK  129  A    between atoms: _345  and  _346
REMARK  130  A    between atoms: _345  and  _348
REMARK  131  A    between atoms: _348  and  _349
REMARK  132  A    between atoms: _353  and  _354
REMARK  133  A    between atoms: _360  and  _361
REMARK  134  A    between atoms: _366  and  _368
REMARK  135  A    between atoms: _368  and  _369
REMARK  136  A    between atoms: _368  and  _371
REMARK  137  A    between atoms: _371  and  _372
REMARK  138  A    between atoms: _375  and  _377
REMARK  139  A    between atoms: _377  and  _378
REMARK  140  A    between atoms: _377  and  _380
REMARK  141  A    between atoms: _380  and  _381
REMARK  142  A    between atoms: _384  and  _386
REMARK  143  A    between atoms: _386  and  _387
REMARK  144  A    between atoms: _386  and  _389
REMARK  145  A    between atoms: _391  and  _393
REMARK  146  A    between atoms: _393  and  _394
REMARK  147  A    between atoms: _393  and  _396
REMARK  148  A    between atoms: _399  and  _401
REMARK  149  A    between atoms: _401  and  _402
REMARK  150  A    between atoms: _401  and  _404
REMARK  151  A    between atoms: _404  and  _405
REMARK  152  A    between atoms: _415  and  _417
REMARK  153  A    between atoms: _417  and  _418
REMARK  154  A    between atoms: _417  and  _420
REMARK  155  A    between atoms: _420  and  _421
REMARK  156  A    between atoms: _426  and  _428
REMARK  157  A    between atoms: _428  and  _429
REMARK  158  A    between atoms: _428  and  _431
REMARK  159  A    between atoms: _431  and  _432
REMARK  160  A    between atoms: _432  and  _433
REMARK  161  A    between atoms: _433  and  _434
REMARK                            x       y       z     vdW  Elec       q    Type
REMARK                         _______ _______ _______ _____ _____    ______ ____
ROOT
ATOM      1  CG  TRP A   1      -8.809  -0.034  24.229  0.00  0.00    -0.002 A 
ATOM      2  CD1 TRP A   1      -7.539   0.567  24.404  0.00  0.00    +0.068 A 
ATOM      3  NE1 TRP A   1      -6.849   0.557  23.212  0.00  0.00    -0.352 N 
ATOM      4  HE1 TRP A   1      -5.903   0.964  23.071  0.00  0.00    +0.166 HD
ATOM      5  CE2 TRP A   1      -7.599  -0.077  22.220  0.00  0.00    +0.056 A 
ATOM      6  CZ2 TRP A   1      -7.330  -0.269  20.859  0.00  0.00    +0.017 A 
ATOM      7  CH2 TRP A   1      -8.308  -0.933  20.147  0.00  0.00    +0.001 A 
ATOM      8  CZ3 TRP A   1      -9.535  -1.380  20.715  0.00  0.00    +0.000 A 
ATOM      9  CE3 TRP A   1      -9.837  -1.104  22.046  0.00  0.00    +0.001 A 
ATOM     10  CD2 TRP A   1      -8.862  -0.443  22.827  0.00  0.00    +0.013 A 
ENDROOT
BRANCH   1  11
ATOM     11  CB  TRP A   1      -9.889  -0.156  25.219  0.00  0.00    +0.053 C 
BRANCH  11  12
ATOM     12  CA  TRP A   1     -10.897   1.035  24.993  0.00  0.00    +0.137 C 
BRANCH  12  13
ATOM     13  N   TRP A   1     -10.466   2.195  25.712  0.00  0.00    -0.239 NA
ATOM     14  H   TRP A   1      -9.862   2.089  26.552  0.00  0.00    +0.142 HD
ENDBRANCH  12  13
BRANCH  12  15
ATOM     15  C   TRP A   1     -12.290   0.596  25.494  0.00  0.00    +0.224 C 
ATOM     16  O   TRP A   1     -12.519   0.533  26.721  0.00  0.00    -0.287 OA
ENDBRANCH  12  15
ENDBRANCH  11  12
ENDBRANCH   1  11
TORSDOF 4
REMARK  Name = ../refined-set-2016/3sbi/3sbi_pocket.pdb
REMARK  161 active torsions:
REMARK  status: ('A' for Active; 'I' for Inactive)
REMARK    1  A    between atoms: _1  and  _3
REMARK    2  A    between atoms: _3  and  _4
REMARK    3  A    between atoms: _3  and  _6
REMARK    4  A    between atoms: _6  and  _7
REMARK    5  A    between atoms: _17  and  _19
REMARK    6  A    between atoms: _19  and  _20
REMARK    7  A    between atoms: _19  and  _22
REMARK    8  A    between atoms: _22  and  _23
REMARK    9  A    between atoms: _28  and  _29
REMARK   10  A    between atoms: _31  and  _33
REMARK   11  A    between atoms: _33  and  _34
REMARK   12  A    between atoms: _33  and  _36
REMARK   13  A    between atoms: _36  and  _37
REMARK   14  A    between atoms: _40  and  _41
REMARK   15  A    between atoms: _46  and  _48
REMARK   16  A    between atoms: _48  and  _49
REMARK   17  A    between atoms: _48  and  _51
REMARK   18  A    between atoms: _51  and  _52
REMARK   19  A    between atoms: _57  and  _59
REMARK   20  A    between atoms: _59  and  _60
REMARK   21  A    between atoms: _59  and  _62
REMARK   22  A    between atoms: _62  and  _63
REMARK   23  A    between atoms: _68  and  _70
REMARK   24  A    between atoms: _70  and  _71
REMARK   25  A    between atoms: _70  and  _73
REMARK   26  A    between atoms: _73  and  _74
REMARK   27  A    between atoms: _79  and  _81
REMARK   28  A    between atoms: _81  and  _82
REMARK   29  A    between atoms: _81  and  _84
REMARK   30  A    between atoms: _84  and  _85
REMARK   31  A    between atoms: _88  and  _90
REMARK   32  A    between atoms: _90  and  _91
REMARK   33  A    between atoms: _90  and  _93
REMARK   34  A    between atoms: _93  and  _94
REMARK   35  A    between atoms: _94  and  _95
REMARK   36  A    between atoms: _100  and  _102
REMARK   37  A    between atoms: _102  and  _103
REMARK   38  A    between atoms: _102  and  _105
REMARK   39  A    between atoms: _105  and  _106
REMARK   40  A    between atoms: _112  and  _114
REMARK   41  A    between atoms: _125  and  _128
REMARK   42  A    between atoms: _128  and  _129
REMARK   43  A    between atoms: _137  and  _138
REMARK   44  A    between atoms: _146  and  _148
REMARK   45  A    between atoms: _148  and  _149
REMARK   46  A    between atoms: _148  and  _151
REMARK   47  A    between atoms: _151  and  _152
REMARK   48  A    between atoms: _152  and  _153
REMARK   49  A    between atoms: _156  and  _158
REMARK   50  A    between atoms: _158  and  _159
REMARK   51  A    between atoms: _158  and  _161
REMARK   52  A    between atoms: _161  and  _162
REMARK   53  A    between atoms: _167  and  _169
REMARK   54  A    between atoms: _169  and  _170
REMARK   55  A    between atoms: _169  and  _172
REMARK   56  A    between atoms: _172  and  _173
REMARK   57  A    between atoms: _173  and  _174
REMARK   58  A    between atoms: _177  and  _179
REMARK   59  A    between atoms: _179  and  _180
REMARK   60  A    between atoms: _179  and  _182
REMARK   61  A    between atoms: _182  and  _183
REMARK   62  A    between atoms: _186  and  _188
REMARK   63  A    between atoms: _188  and  _189
REMARK   64  A    between atoms: _188  and  _191
REMARK   65  A    between atoms: _191  and  _192
REMARK   66  A    between atoms: _193  and  ZN_443
REMARK   67  A    between atoms: _197  and  _199
REMARK   68  A    between atoms: _199  and  _200
REMARK   69  A    between atoms: _199  and  _202
REMARK   70  A    between atoms: _202  and  _203
REMARK   71  A    between atoms: _206  and  _208
REMARK   72  A    between atoms: _208  and  _209
REMARK   73  A    between atoms: _208  and  _211
REMARK   74  A    between atoms: _214  and  _216
REMARK   75  A    between atoms: _216  and  _217
REMARK   76  A    between atoms: _216  and  _219
REMARK   77  A    between atoms: _219  and  _220
REMARK   78  A    between atoms: _225  and  _227
REMARK   79  A    between atoms: _227  and  _228
REMARK   80  A    between atoms: _227  and  _230
REMARK   81  A    between atoms: _230  and  _231
REMARK   82  A    between atoms: _237  and  _239
REMARK   83  A    between atoms: _239  and  _240
REMARK   84  A    between atoms: _242  and  _244
REMARK   85  A    between atoms: _244  and  _245
REMARK   86  A    between atoms: _244  and  _247
REMARK   87  A    between atoms: _247  and  _248
REMARK   88  A    between atoms: _248  and  _249
REMARK   89  A    between atoms: _249  and  _250
REMARK   90  A    between atoms: _250  and  _251
REMARK   91  A    between atoms: _255  and  _257
REMARK   92  A    between atoms: _257  and  _258
REMARK   93  A    between atoms: _257  and  _260
REMARK   94  A    between atoms: _263  and  _265
REMARK   95  A    between atoms: _265  and  _266
REMARK   96  A    between atoms: _265  and  _268
REMARK   97  A    between atoms: _268  and  _269
REMARK   98  A    between atoms: _269  and  _270
REMARK   99  A    between atoms: _275  and  _277
REMARK  100  A    between atoms: _277  and  _278
REMARK  101  A    between atoms: _277  and  _280
REMARK  102  A    between atoms: _280  and  _281
REMARK  103  A    between atoms: _284  and  _286
REMARK  104  A    between atoms: _286  and  _287
REMARK  105  A    between atoms: _290  and  _292
REMARK  106  A    between atoms: _292  and  _293
REMARK  107  A    between atoms: _292  and  _295
REMARK  108  A    between atoms: _298  and  _300
REMARK  109  A    between atoms: _300  and  _301
REMARK  110  A    between atoms: _300  and  _303
REMARK  111  A    between atoms: _303  and  _304
REMARK  112  A    between atoms: _307  and  _309
REMARK  113  A    between atoms: _309  and  _310
REMARK  114  A    between atoms: _312  and  _314
REMARK  115  A    between atoms: _314  and  _315
REMARK  116  A    between atoms: _317  and  _319
REMARK  117  A    between atoms: _319  and  _320
REMARK  118  A    between atoms: _319  and  _322
REMARK  119  A    between atoms: _322  and  _323
REMARK  120  A    between atoms: _325  and  _327
REMARK  121  A    between atoms: _327  and  _328
REMARK  122  A    between atoms: _327  and  _330
REMARK  123  A    between atoms: _330  and  _331
REMARK  124  A    between atoms: _334  and  _336
REMARK  125  A    between atoms: _336  and  _337
REMARK  126  A    between atoms: _336  and  _339
REMARK  127  A    between atoms: _339  and  _340
REMARK  128  A    between atoms: _343  and  _345
REMARK  129  A    between atoms: _345  and  _346
REMARK  130  A    between atoms: _345  and  _348
REMARK  131  A    between atoms: _348  and  _349
REMARK  132  A    between atoms: _353  and  _354
REMARK  133  A    between atoms: _360  and  _361
REMARK  134  A    between atoms: _366  and  _368
REMARK  135  A    between atoms: _368  and  _369
REMARK  136  A    between atoms: _368  and  _371
REMARK  137  A    between atoms: _371  and  _372
REMARK  138  A    between atoms: _375  and  _377
REMARK  139  A    between atoms: _377  and  _378
REMARK  140  A    between atoms: _377  and  _380
REMARK  141  A    between atoms: _380  and  _381
REMARK  142  A    between atoms: _384  and  _386
REMARK  143  A    between atoms: _386  and  _387
REMARK  144  A    between atoms: _386  and  _389
REMARK  145  A    between atoms: _391  and  _393
REMARK  146  A    between atoms: _393  and  _394
REMARK  147  A    between atoms: _393  and  _396
REMARK  148  A    between atoms: _399  and  _401
REMARK  149  A    between atoms: _401  and  _402
REMARK  150  A    between atoms: _401  and  _404
REMARK  151  A    between atoms: _404  and  _405
REMARK  152  A    between atoms: _415  and  _417
REMARK  153  A    between atoms: _417  and  _418
REMARK  154  A    between atoms: _417  and  _420
REMARK  155  A    between atoms: _420  and  _421
REMARK  156  A    between atoms: _426  and  _428
REMARK  157  A    between atoms: _428  and  _429
REMARK  158  A    between atoms: _428  and  _431
REMARK  159  A    between atoms: _431  and  _432
REMARK  160  A    between atoms: _432  and  _433
REMARK  161  A    between atoms: _433  and  _434
REMARK                            x       y       z     vdW  Elec       q    Type
REMARK                         _______ _______ _______ _____ _____    ______ ____
ROOT
ATOM      1  CB  ASN A   1      -1.982  -7.392  10.453  0.00  0.00    +0.110 C 
ENDROOT
BRANCH   1   2
ATOM      2  CG  ASN A   1      -3.443  -7.615  10.144  0.00  0.00    +0.221 C 
ATOM      3  OD1 ASN A   1      -4.133  -8.433  10.756  0.00  0.00    -0.275 OA
ATOM      4  ND2 ASN A   1      -3.954  -6.825   9.185  0.00  0.00    -0.329 N 
ATOM      5 HD21 ASN A   1      -4.962  -6.892   8.938  0.00  0.00    +0.145 HD
ATOM      6 HD22 ASN A   1      -3.342  -6.146   8.689  0.00  0.00    +0.145 HD
ENDBRANCH   1   2
BRANCH   1   7
ATOM      7  CA  ASN A   1      -1.428  -8.288  11.558  0.00  0.00    +0.142 C 
BRANCH   7   8
ATOM      8  N   ASN A   1      -1.758  -9.683  11.321  0.00  0.00    -0.239 NA
ATOM      9  H   ASN A   1      -2.682  -9.950  10.927  0.00  0.00    +0.142 HD
ENDBRANCH   7   8
BRANCH   7  10
ATOM     10  C   ASN A   1      -1.994  -7.836  12.912  0.00  0.00    +0.225 C 
ATOM     11  O   ASN A   1      -2.704  -6.805  13.023  0.00  0.00    -0.287 OA
ENDBRANCH   7  10
ENDBRANCH   1   7
TORSDOF 4
REMARK  Name = ../refined-set-2016/3sbi/3sbi_pocket.pdb
REMARK  161 active torsions:
REMARK  status: ('A' for Active; 'I' for Inactive)
REMARK    1  A    between atoms: _1  and  _3
REMARK    2  A    between atoms: _3  and  _4
REMARK    3  A    between atoms: _3  and  _6
REMARK    4  A    between atoms: _6  and  _7
REMARK    5  A    between atoms: _17  and  _19
REMARK    6  A    between atoms: _19  and  _20
REMARK    7  A    between atoms: _19  and  _22
REMARK    8  A    between atoms: _22  and  _23
REMARK    9  A    between atoms: _28  and  _29
REMARK   10  A    between atoms: _31  and  _33
REMARK   11  A    between atoms: _33  and  _34
REMARK   12  A    between atoms: _33  and  _36
REMARK   13  A    between atoms: _36  and  _37
REMARK   14  A    between atoms: _40  and  _41
REMARK   15  A    between atoms: _46  and  _48
REMARK   16  A    between atoms: _48  and  _49
REMARK   17  A    between atoms: _48  and  _51
REMARK   18  A    between atoms: _51  and  _52
REMARK   19  A    between atoms: _57  and  _59
REMARK   20  A    between atoms: _59  and  _60
REMARK   21  A    between atoms: _59  and  _62
REMARK   22  A    between atoms: _62  and  _63
REMARK   23  A    between atoms: _68  and  _70
REMARK   24  A    between atoms: _70  and  _71
REMARK   25  A    between atoms: _70  and  _73
REMARK   26  A    between atoms: _73  and  _74
REMARK   27  A    between atoms: _79  and  _81
REMARK   28  A    between atoms: _81  and  _82
REMARK   29  A    between atoms: _81  and  _84
REMARK   30  A    between atoms: _84  and  _85
REMARK   31  A    between atoms: _88  and  _90
REMARK   32  A    between atoms: _90  and  _91
REMARK   33  A    between atoms: _90  and  _93
REMARK   34  A    between atoms: _93  and  _94
REMARK   35  A    between atoms: _94  and  _95
REMARK   36  A    between atoms: _100  and  _102
REMARK   37  A    between atoms: _102  and  _103
REMARK   38  A    between atoms: _102  and  _105
REMARK   39  A    between atoms: _105  and  _106
REMARK   40  A    between atoms: _112  and  _114
REMARK   41  A    between atoms: _125  and  _128
REMARK   42  A    between atoms: _128  and  _129
REMARK   43  A    between atoms: _137  and  _138
REMARK   44  A    between atoms: _146  and  _148
REMARK   45  A    between atoms: _148  and  _149
REMARK   46  A    between atoms: _148  and  _151
REMARK   47  A    between atoms: _151  and  _152
REMARK   48  A    between atoms: _152  and  _153
REMARK   49  A    between atoms: _156  and  _158
REMARK   50  A    between atoms: _158  and  _159
REMARK   51  A    between atoms: _158  and  _161
REMARK   52  A    between atoms: _161  and  _162
REMARK   53  A    between atoms: _167  and  _169
REMARK   54  A    between atoms: _169  and  _170
REMARK   55  A    between atoms: _169  and  _172
REMARK   56  A    between atoms: _172  and  _173
REMARK   57  A    between atoms: _173  and  _174
REMARK   58  A    between atoms: _177  and  _179
REMARK   59  A    between atoms: _179  and  _180
REMARK   60  A    between atoms: _179  and  _182
REMARK   61  A    between atoms: _182  and  _183
REMARK   62  A    between atoms: _186  and  _188
REMARK   63  A    between atoms: _188  and  _189
REMARK   64  A    between atoms: _188  and  _191
REMARK   65  A    between atoms: _191  and  _192
REMARK   66  A    between atoms: _193  and  ZN_443
REMARK   67  A    between atoms: _197  and  _199
REMARK   68  A    between atoms: _199  and  _200
REMARK   69  A    between atoms: _199  and  _202
REMARK   70  A    between atoms: _202  and  _203
REMARK   71  A    between atoms: _206  and  _208
REMARK   72  A    between atoms: _208  and  _209
REMARK   73  A    between atoms: _208  and  _211
REMARK   74  A    between atoms: _214  and  _216
REMARK   75  A    between atoms: _216  and  _217
REMARK   76  A    between atoms: _216  and  _219
REMARK   77  A    between atoms: _219  and  _220
REMARK   78  A    between atoms: _225  and  _227
REMARK   79  A    between atoms: _227  and  _228
REMARK   80  A    between atoms: _227  and  _230
REMARK   81  A    between atoms: _230  and  _231
REMARK   82  A    between atoms: _237  and  _239
REMARK   83  A    between atoms: _239  and  _240
REMARK   84  A    between atoms: _242  and  _244
REMARK   85  A    between atoms: _244  and  _245
REMARK   86  A    between atoms: _244  and  _247
REMARK   87  A    between atoms: _247  and  _248
REMARK   88  A    between atoms: _248  and  _249
REMARK   89  A    between atoms: _249  and  _250
REMARK   90  A    between atoms: _250  and  _251
REMARK   91  A    between atoms: _255  and  _257
REMARK   92  A    between atoms: _257  and  _258
REMARK   93  A    between atoms: _257  and  _260
REMARK   94  A    between atoms: _263  and  _265
REMARK   95  A    between atoms: _265  and  _266
REMARK   96  A    between atoms: _265  and  _268
REMARK   97  A    between atoms: _268  and  _269
REMARK   98  A    between atoms: _269  and  _270
REMARK   99  A    between atoms: _275  and  _277
REMARK  100  A    between atoms: _277  and  _278
REMARK  101  A    between atoms: _277  and  _280
REMARK  102  A    between atoms: _280  and  _281
REMARK  103  A    between atoms: _284  and  _286
REMARK  104  A    between atoms: _286  and  _287
REMARK  105  A    between atoms: _290  and  _292
REMARK  106  A    between atoms: _292  and  _293
REMARK  107  A    between atoms: _292  and  _295
REMARK  108  A    between atoms: _298  and  _300
REMARK  109  A    between atoms: _300  and  _301
REMARK  110  A    between atoms: _300  and  _303
REMARK  111  A    between atoms: _303  and  _304
REMARK  112  A    between atoms: _307  and  _309
REMARK  113  A    between atoms: _309  and  _310
REMARK  114  A    between atoms: _312  and  _314
REMARK  115  A    between atoms: _314  and  _315
REMARK  116  A    between atoms: _317  and  _319
REMARK  117  A    between atoms: _319  and  _320
REMARK  118  A    between atoms: _319  and  _322
REMARK  119  A    between atoms: _322  and  _323
REMARK  120  A    between atoms: _325  and  _327
REMARK  121  A    between atoms: _327  and  _328
REMARK  122  A    between atoms: _327  and  _330
REMARK  123  A    between atoms: _330  and  _331
REMARK  124  A    between atoms: _334  and  _336
REMARK  125  A    between atoms: _336  and  _337
REMARK  126  A    between atoms: _336  and  _339
REMARK  127  A    between atoms: _339  and  _340
REMARK  128  A    between atoms: _343  and  _345
REMARK  129  A    between atoms: _345  and  _346
REMARK  130  A    between atoms: _345  and  _348
REMARK  131  A    between atoms: _348  and  _349
REMARK  132  A    between atoms: _353  and  _354
REMARK  133  A    between atoms: _360  and  _361
REMARK  134  A    between atoms: _366  and  _368
REMARK  135  A    between atoms: _368  and  _369
REMARK  136  A    between atoms: _368  and  _371
REMARK  137  A    between atoms: _371  and  _372
REMARK  138  A    between atoms: _375  and  _377
REMARK  139  A    between atoms: _377  and  _378
REMARK  140  A    between atoms: _377  and  _380
REMARK  141  A    between atoms: _380  and  _381
REMARK  142  A    between atoms: _384  and  _386
REMARK  143  A    between atoms: _386  and  _387
REMARK  144  A    between atoms: _386  and  _389
REMARK  145  A    between atoms: _391  and  _393
REMARK  146  A    between atoms: _393  and  _394
REMARK  147  A    between atoms: _393  and  _396
REMARK  148  A    between atoms: _399  and  _401
REMARK  149  A    between atoms: _401  and  _402
REMARK  150  A    between atoms: _401  and  _404
REMARK  151  A    between atoms: _404  and  _405
REMARK  152  A    between atoms: _415  and  _417
REMARK  153  A    between atoms: _417  and  _418
REMARK  154  A    between atoms: _417  and  _420
REMARK  155  A    between atoms: _420  and  _421
REMARK  156  A    between atoms: _426  and  _428
REMARK  157  A    between atoms: _428  and  _429
REMARK  158  A    between atoms: _428  and  _431
REMARK  159  A    between atoms: _431  and  _432
REMARK  160  A    between atoms: _432  and  _433
REMARK  161  A    between atoms: _433  and  _434
REMARK                            x       y       z     vdW  Elec       q    Type
REMARK                         _______ _______ _______ _____ _____    ______ ____
ROOT
ATOM      1  NE  ARG A   1       2.196  -3.821  21.214  0.00  0.00    -0.265 N 
ATOM      2  CZ  ARG A   1       2.387  -2.776  22.047  0.00  0.00    +0.342 C 
ATOM      3  NH2 ARG A   1       3.631  -2.549  22.500  0.00  0.00    -0.292 N 
ATOM      4 HH21 ARG A   1       3.813  -1.752  23.143  0.00  0.00    +0.255 HD
ATOM      5 HH22 ARG A   1       4.412  -3.170  22.207  0.00  0.00    +0.255 HD
ATOM      6  NH1 ARG A   1       1.339  -1.990  22.382  0.00  0.00    -0.292 N 
ATOM      7 HH11 ARG A   1       1.478  -1.183  23.023  0.00  0.00    +0.255 HD
ATOM      8 HH12 ARG A   1       0.394  -2.192  21.998  0.00  0.00    +0.255 HD
ATOM      9  HE  ARG A   1       3.004  -4.455  21.048  0.00  0.00    +0.259 HD
ENDROOT
BRANCH   1  10
ATOM     10  CD  ARG A   1       0.922  -4.138  20.515  0.00  0.00    +0.174 C 
BRANCH  10  11
ATOM     11  CG  ARG A   1       1.048  -5.531  19.881  0.00  0.00    +0.045 C 
BRANCH  11  12
ATOM     12  CB  ARG A   1      -0.051  -5.763  18.845  0.00  0.00    +0.029 C 
BRANCH  12  13
ATOM     13  CA  ARG A   1      -0.122  -7.246  18.325  0.00  0.00    +0.133 C 
BRANCH  13  14
ATOM     14  N   ARG A   1      -1.107  -7.347  17.222  0.00  0.00    -0.239 NA
ATOM     15  H   ARG A   1      -1.924  -6.703  17.214  0.00  0.00    +0.142 HD
ENDBRANCH  13  14
BRANCH  13  16
ATOM     16  C   ARG A   1      -0.629  -8.152  19.487  0.00  0.00    +0.224 C 
ATOM     17  O   ARG A   1      -1.816  -8.156  19.774  0.00  0.00    -0.287 OA
ENDBRANCH  13  16
ENDBRANCH  12  13
ENDBRANCH  11  12
ENDBRANCH  10  11
ENDBRANCH   1  10
TORSDOF 6
REMARK  Name = ../refined-set-2016/3sbi/3sbi_pocket.pdb
REMARK  161 active torsions:
REMARK  status: ('A' for Active; 'I' for Inactive)
REMARK    1  A    between atoms: _1  and  _3
REMARK    2  A    between atoms: _3  and  _4
REMARK    3  A    between atoms: _3  and  _6
REMARK    4  A    between atoms: _6  and  _7
REMARK    5  A    between atoms: _17  and  _19
REMARK    6  A    between atoms: _19  and  _20
REMARK    7  A    between atoms: _19  and  _22
REMARK    8  A    between atoms: _22  and  _23
REMARK    9  A    between atoms: _28  and  _29
REMARK   10  A    between atoms: _31  and  _33
REMARK   11  A    between atoms: _33  and  _34
REMARK   12  A    between atoms: _33  and  _36
REMARK   13  A    between atoms: _36  and  _37
REMARK   14  A    between atoms: _40  and  _41
REMARK   15  A    between atoms: _46  and  _48
REMARK   16  A    between atoms: _48  and  _49
REMARK   17  A    between atoms: _48  and  _51
REMARK   18  A    between atoms: _51  and  _52
REMARK   19  A    between atoms: _57  and  _59
REMARK   20  A    between atoms: _59  and  _60
REMARK   21  A    between atoms: _59  and  _62
REMARK   22  A    between atoms: _62  and  _63
REMARK   23  A    between atoms: _68  and  _70
REMARK   24  A    between atoms: _70  and  _71
REMARK   25  A    between atoms: _70  and  _73
REMARK   26  A    between atoms: _73  and  _74
REMARK   27  A    between atoms: _79  and  _81
REMARK   28  A    between atoms: _81  and  _82
REMARK   29  A    between atoms: _81  and  _84
REMARK   30  A    between atoms: _84  and  _85
REMARK   31  A    between atoms: _88  and  _90
REMARK   32  A    between atoms: _90  and  _91
REMARK   33  A    between atoms: _90  and  _93
REMARK   34  A    between atoms: _93  and  _94
REMARK   35  A    between atoms: _94  and  _95
REMARK   36  A    between atoms: _100  and  _102
REMARK   37  A    between atoms: _102  and  _103
REMARK   38  A    between atoms: _102  and  _105
REMARK   39  A    between atoms: _105  and  _106
REMARK   40  A    between atoms: _112  and  _114
REMARK   41  A    between atoms: _125  and  _128
REMARK   42  A    between atoms: _128  and  _129
REMARK   43  A    between atoms: _137  and  _138
REMARK   44  A    between atoms: _146  and  _148
REMARK   45  A    between atoms: _148  and  _149
REMARK   46  A    between atoms: _148  and  _151
REMARK   47  A    between atoms: _151  and  _152
REMARK   48  A    between atoms: _152  and  _153
REMARK   49  A    between atoms: _156  and  _158
REMARK   50  A    between atoms: _158  and  _159
REMARK   51  A    between atoms: _158  and  _161
REMARK   52  A    between atoms: _161  and  _162
REMARK   53  A    between atoms: _167  and  _169
REMARK   54  A    between atoms: _169  and  _170
REMARK   55  A    between atoms: _169  and  _172
REMARK   56  A    between atoms: _172  and  _173
REMARK   57  A    between atoms: _173  and  _174
REMARK   58  A    between atoms: _177  and  _179
REMARK   59  A    between atoms: _179  and  _180
REMARK   60  A    between atoms: _179  and  _182
REMARK   61  A    between atoms: _182  and  _183
REMARK   62  A    between atoms: _186  and  _188
REMARK   63  A    between atoms: _188  and  _189
REMARK   64  A    between atoms: _188  and  _191
REMARK   65  A    between atoms: _191  and  _192
REMARK   66  A    between atoms: _193  and  ZN_443
REMARK   67  A    between atoms: _197  and  _199
REMARK   68  A    between atoms: _199  and  _200
REMARK   69  A    between atoms: _199  and  _202
REMARK   70  A    between atoms: _202  and  _203
REMARK   71  A    between atoms: _206  and  _208
REMARK   72  A    between atoms: _208  and  _209
REMARK   73  A    between atoms: _208  and  _211
REMARK   74  A    between atoms: _214  and  _216
REMARK   75  A    between atoms: _216  and  _217
REMARK   76  A    between atoms: _216  and  _219
REMARK   77  A    between atoms: _219  and  _220
REMARK   78  A    between atoms: _225  and  _227
REMARK   79  A    between atoms: _227  and  _228
REMARK   80  A    between atoms: _227  and  _230
REMARK   81  A    between atoms: _230  and  _231
REMARK   82  A    between atoms: _237  and  _239
REMARK   83  A    between atoms: _239  and  _240
REMARK   84  A    between atoms: _242  and  _244
REMARK   85  A    between atoms: _244  and  _245
REMARK   86  A    between atoms: _244  and  _247
REMARK   87  A    between atoms: _247  and  _248
REMARK   88  A    between atoms: _248  and  _249
REMARK   89  A    between atoms: _249  and  _250
REMARK   90  A    between atoms: _250  and  _251
REMARK   91  A    between atoms: _255  and  _257
REMARK   92  A    between atoms: _257  and  _258
REMARK   93  A    between atoms: _257  and  _260
REMARK   94  A    between atoms: _263  and  _265
REMARK   95  A    between atoms: _265  and  _266
REMARK   96  A    between atoms: _265  and  _268
REMARK   97  A    between atoms: _268  and  _269
REMARK   98  A    between atoms: _269  and  _270
REMARK   99  A    between atoms: _275  and  _277
REMARK  100  A    between atoms: _277  and  _278
REMARK  101  A    between atoms: _277  and  _280
REMARK  102  A    between atoms: _280  and  _281
REMARK  103  A    between atoms: _284  and  _286
REMARK  104  A    between atoms: _286  and  _287
REMARK  105  A    between atoms: _290  and  _292
REMARK  106  A    between atoms: _292  and  _293
REMARK  107  A    between atoms: _292  and  _295
REMARK  108  A    between atoms: _298  and  _300
REMARK  109  A    between atoms: _300  and  _301
REMARK  110  A    between atoms: _300  and  _303
REMARK  111  A    between atoms: _303  and  _304
REMARK  112  A    between atoms: _307  and  _309
REMARK  113  A    between atoms: _309  and  _310
REMARK  114  A    between atoms: _312  and  _314
REMARK  115  A    between atoms: _314  and  _315
REMARK  116  A    between atoms: _317  and  _319
REMARK  117  A    between atoms: _319  and  _320
REMARK  118  A    between atoms: _319  and  _322
REMARK  119  A    between atoms: _322  and  _323
REMARK  120  A    between atoms: _325  and  _327
REMARK  121  A    between atoms: _327  and  _328
REMARK  122  A    between atoms: _327  and  _330
REMARK  123  A    between atoms: _330  and  _331
REMARK  124  A    between atoms: _334  and  _336
REMARK  125  A    between atoms: _336  and  _337
REMARK  126  A    between atoms: _336  and  _339
REMARK  127  A    between atoms: _339  and  _340
REMARK  128  A    between atoms: _343  and  _345
REMARK  129  A    between atoms: _345  and  _346
REMARK  130  A    between atoms: _345  and  _348
REMARK  131  A    between atoms: _348  and  _349
REMARK  132  A    between atoms: _353  and  _354
REMARK  133  A    between atoms: _360  and  _361
REMARK  134  A    between atoms: _366  and  _368
REMARK  135  A    between atoms: _368  and  _369
REMARK  136  A    between atoms: _368  and  _371
REMARK  137  A    between atoms: _371  and  _372
REMARK  138  A    between atoms: _375  and  _377
REMARK  139  A    between atoms: _377  and  _378
REMARK  140  A    between atoms: _377  and  _380
REMARK  141  A    between atoms: _380  and  _381
REMARK  142  A    between atoms: _384  and  _386
REMARK  143  A    between atoms: _386  and  _387
REMARK  144  A    between atoms: _386  and  _389
REMARK  145  A    between atoms: _391  and  _393
REMARK  146  A    between atoms: _393  and  _394
REMARK  147  A    between atoms: _393  and  _396
REMARK  148  A    between atoms: _399  and  _401
REMARK  149  A    between atoms: _401  and  _402
REMARK  150  A    between atoms: _401  and  _404
REMARK  151  A    between atoms: _404  and  _405
REMARK  152  A    between atoms: _415  and  _417
REMARK  153  A    between atoms: _417  and  _418
REMARK  154  A    between atoms: _417  and  _420
REMARK  155  A    between atoms: _420  and  _421
REMARK  156  A    between atoms: _426  and  _428
REMARK  157  A    between atoms: _428  and  _429
REMARK  158  A    between atoms: _428  and  _431
REMARK  159  A    between atoms: _431  and  _432
REMARK  160  A    between atoms: _432  and  _433
REMARK  161  A    between atoms: _433  and  _434
REMARK                            x       y       z     vdW  Elec       q    Type
REMARK                         _______ _______ _______ _____ _____    ______ ____
ROOT
ATOM      1  O   HOH     1       2.626   7.562  13.037  0.00  0.00    +0.000 OA
ENDROOT
TORSDOF 0
REMARK  Name = ../refined-set-2016/3sbi/3sbi_pocket.pdb
REMARK  161 active torsions:
REMARK  status: ('A' for Active; 'I' for Inactive)
REMARK    1  A    between atoms: _1  and  _3
REMARK    2  A    between atoms: _3  and  _4
REMARK    3  A    between atoms: _3  and  _6
REMARK    4  A    between atoms: _6  and  _7
REMARK    5  A    between atoms: _17  and  _19
REMARK    6  A    between atoms: _19  and  _20
REMARK    7  A    between atoms: _19  and  _22
REMARK    8  A    between atoms: _22  and  _23
REMARK    9  A    between atoms: _28  and  _29
REMARK   10  A    between atoms: _31  and  _33
REMARK   11  A    between atoms: _33  and  _34
REMARK   12  A    between atoms: _33  and  _36
REMARK   13  A    between atoms: _36  and  _37
REMARK   14  A    between atoms: _40  and  _41
REMARK   15  A    between atoms: _46  and  _48
REMARK   16  A    between atoms: _48  and  _49
REMARK   17  A    between atoms: _48  and  _51
REMARK   18  A    between atoms: _51  and  _52
REMARK   19  A    between atoms: _57  and  _59
REMARK   20  A    between atoms: _59  and  _60
REMARK   21  A    between atoms: _59  and  _62
REMARK   22  A    between atoms: _62  and  _63
REMARK   23  A    between atoms: _68  and  _70
REMARK   24  A    between atoms: _70  and  _71
REMARK   25  A    between atoms: _70  and  _73
REMARK   26  A    between atoms: _73  and  _74
REMARK   27  A    between atoms: _79  and  _81
REMARK   28  A    between atoms: _81  and  _82
REMARK   29  A    between atoms: _81  and  _84
REMARK   30  A    between atoms: _84  and  _85
REMARK   31  A    between atoms: _88  and  _90
REMARK   32  A    between atoms: _90  and  _91
REMARK   33  A    between atoms: _90  and  _93
REMARK   34  A    between atoms: _93  and  _94
REMARK   35  A    between atoms: _94  and  _95
REMARK   36  A    between atoms: _100  and  _102
REMARK   37  A    between atoms: _102  and  _103
REMARK   38  A    between atoms: _102  and  _105
REMARK   39  A    between atoms: _105  and  _106
REMARK   40  A    between atoms: _112  and  _114
REMARK   41  A    between atoms: _125  and  _128
REMARK   42  A    between atoms: _128  and  _129
REMARK   43  A    between atoms: _137  and  _138
REMARK   44  A    between atoms: _146  and  _148
REMARK   45  A    between atoms: _148  and  _149
REMARK   46  A    between atoms: _148  and  _151
REMARK   47  A    between atoms: _151  and  _152
REMARK   48  A    between atoms: _152  and  _153
REMARK   49  A    between atoms: _156  and  _158
REMARK   50  A    between atoms: _158  and  _159
REMARK   51  A    between atoms: _158  and  _161
REMARK   52  A    between atoms: _161  and  _162
REMARK   53  A    between atoms: _167  and  _169
REMARK   54  A    between atoms: _169  and  _170
REMARK   55  A    between atoms: _169  and  _172
REMARK   56  A    between atoms: _172  and  _173
REMARK   57  A    between atoms: _173  and  _174
REMARK   58  A    between atoms: _177  and  _179
REMARK   59  A    between atoms: _179  and  _180
REMARK   60  A    between atoms: _179  and  _182
REMARK   61  A    between atoms: _182  and  _183
REMARK   62  A    between atoms: _186  and  _188
REMARK   63  A    between atoms: _188  and  _189
REMARK   64  A    between atoms: _188  and  _191
REMARK   65  A    between atoms: _191  and  _192
REMARK   66  A    between atoms: _193  and  ZN_443
REMARK   67  A    between atoms: _197  and  _199
REMARK   68  A    between atoms: _199  and  _200
REMARK   69  A    between atoms: _199  and  _202
REMARK   70  A    between atoms: _202  and  _203
REMARK   71  A    between atoms: _206  and  _208
REMARK   72  A    between atoms: _208  and  _209
REMARK   73  A    between atoms: _208  and  _211
REMARK   74  A    between atoms: _214  and  _216
REMARK   75  A    between atoms: _216  and  _217
REMARK   76  A    between atoms: _216  and  _219
REMARK   77  A    between atoms: _219  and  _220
REMARK   78  A    between atoms: _225  and  _227
REMARK   79  A    between atoms: _227  and  _228
REMARK   80  A    between atoms: _227  and  _230
REMARK   81  A    between atoms: _230  and  _231
REMARK   82  A    between atoms: _237  and  _239
REMARK   83  A    between atoms: _239  and  _240
REMARK   84  A    between atoms: _242  and  _244
REMARK   85  A    between atoms: _244  and  _245
REMARK   86  A    between atoms: _244  and  _247
REMARK   87  A    between atoms: _247  and  _248
REMARK   88  A    between atoms: _248  and  _249
REMARK   89  A    between atoms: _249  and  _250
REMARK   90  A    between atoms: _250  and  _251
REMARK   91  A    between atoms: _255  and  _257
REMARK   92  A    between atoms: _257  and  _258
REMARK   93  A    between atoms: _257  and  _260
REMARK   94  A    between atoms: _263  and  _265
REMARK   95  A    between atoms: _265  and  _266
REMARK   96  A    between atoms: _265  and  _268
REMARK   97  A    between atoms: _268  and  _269
REMARK   98  A    between atoms: _269  and  _270
REMARK   99  A    between atoms: _275  and  _277
REMARK  100  A    between atoms: _277  and  _278
REMARK  101  A    between atoms: _277  and  _280
REMARK  102  A    between atoms: _280  and  _281
REMARK  103  A    between atoms: _284  and  _286
REMARK  104  A    between atoms: _286  and  _287
REMARK  105  A    between atoms: _290  and  _292
REMARK  106  A    between atoms: _292  and  _293
REMARK  107  A    between atoms: _292  and  _295
REMARK  108  A    between atoms: _298  and  _300
REMARK  109  A    between atoms: _300  and  _301
REMARK  110  A    between atoms: _300  and  _303
REMARK  111  A    between atoms: _303  and  _304
REMARK  112  A    between atoms: _307  and  _309
REMARK  113  A    between atoms: _309  and  _310
REMARK  114  A    between atoms: _312  and  _314
REMARK  115  A    between atoms: _314  and  _315
REMARK  116  A    between atoms: _317  and  _319
REMARK  117  A    between atoms: _319  and  _320
REMARK  118  A    between atoms: _319  and  _322
REMARK  119  A    between atoms: _322  and  _323
REMARK  120  A    between atoms: _325  and  _327
REMARK  121  A    between atoms: _327  and  _328
REMARK  122  A    between atoms: _327  and  _330
REMARK  123  A    between atoms: _330  and  _331
REMARK  124  A    between atoms: _334  and  _336
REMARK  125  A    between atoms: _336  and  _337
REMARK  126  A    between atoms: _336  and  _339
REMARK  127  A    between atoms: _339  and  _340
REMARK  128  A    between atoms: _343  and  _345
REMARK  129  A    between atoms: _345  and  _346
REMARK  130  A    between atoms: _345  and  _348
REMARK  131  A    between atoms: _348  and  _349
REMARK  132  A    between atoms: _353  and  _354
REMARK  133  A    between atoms: _360  and  _361
REMARK  134  A    between atoms: _366  and  _368
REMARK  135  A    between atoms: _368  and  _369
REMARK  136  A    between atoms: _368  and  _371
REMARK  137  A    between atoms: _371  and  _372
REMARK  138  A    between atoms: _375  and  _377
REMARK  139  A    between atoms: _377  and  _378
REMARK  140  A    between atoms: _377  and  _380
REMARK  141  A    between atoms: _380  and  _381
REMARK  142  A    between atoms: _384  and  _386
REMARK  143  A    between atoms: _386  and  _387
REMARK  144  A    between atoms: _386  and  _389
REMARK  145  A    between atoms: _391  and  _393
REMARK  146  A    between atoms: _393  and  _394
REMARK  147  A    between atoms: _393  and  _396
REMARK  148  A    between atoms: _399  and  _401
REMARK  149  A    between atoms: _401  and  _402
REMARK  150  A    between atoms: _401  and  _404
REMARK  151  A    between atoms: _404  and  _405
REMARK  152  A    between atoms: _415  and  _417
REMARK  153  A    between atoms: _417  and  _418
REMARK  154  A    between atoms: _417  and  _420
REMARK  155  A    between atoms: _420  and  _421
REMARK  156  A    between atoms: _426  and  _428
REMARK  157  A    between atoms: _428  and  _429
REMARK  158  A    between atoms: _428  and  _431
REMARK  159  A    between atoms: _431  and  _432
REMARK  160  A    between atoms: _432  and  _433
REMARK  161  A    between atoms: _433  and  _434
REMARK                            x       y       z     vdW  Elec       q    Type
REMARK                         _______ _______ _______ _____ _____    ______ ____
ROOT
ATOM      1  O   HOH     1      -1.286  -4.138  15.765  0.00  0.00    +0.000 OA
ENDROOT
TORSDOF 0
REMARK  Name = ../refined-set-2016/3sbi/3sbi_pocket.pdb
REMARK  161 active torsions:
REMARK  status: ('A' for Active; 'I' for Inactive)
REMARK    1  A    between atoms: _1  and  _3
REMARK    2  A    between atoms: _3  and  _4
REMARK    3  A    between atoms: _3  and  _6
REMARK    4  A    between atoms: _6  and  _7
REMARK    5  A    between atoms: _17  and  _19
REMARK    6  A    between atoms: _19  and  _20
REMARK    7  A    between atoms: _19  and  _22
REMARK    8  A    between atoms: _22  and  _23
REMARK    9  A    between atoms: _28  and  _29
REMARK   10  A    between atoms: _31  and  _33
REMARK   11  A    between atoms: _33  and  _34
REMARK   12  A    between atoms: _33  and  _36
REMARK   13  A    between atoms: _36  and  _37
REMARK   14  A    between atoms: _40  and  _41
REMARK   15  A    between atoms: _46  and  _48
REMARK   16  A    between atoms: _48  and  _49
REMARK   17  A    between atoms: _48  and  _51
REMARK   18  A    between atoms: _51  and  _52
REMARK   19  A    between atoms: _57  and  _59
REMARK   20  A    between atoms: _59  and  _60
REMARK   21  A    between atoms: _59  and  _62
REMARK   22  A    between atoms: _62  and  _63
REMARK   23  A    between atoms: _68  and  _70
REMARK   24  A    between atoms: _70  and  _71
REMARK   25  A    between atoms: _70  and  _73
REMARK   26  A    between atoms: _73  and  _74
REMARK   27  A    between atoms: _79  and  _81
REMARK   28  A    between atoms: _81  and  _82
REMARK   29  A    between atoms: _81  and  _84
REMARK   30  A    between atoms: _84  and  _85
REMARK   31  A    between atoms: _88  and  _90
REMARK   32  A    between atoms: _90  and  _91
REMARK   33  A    between atoms: _90  and  _93
REMARK   34  A    between atoms: _93  and  _94
REMARK   35  A    between atoms: _94  and  _95
REMARK   36  A    between atoms: _100  and  _102
REMARK   37  A    between atoms: _102  and  _103
REMARK   38  A    between atoms: _102  and  _105
REMARK   39  A    between atoms: _105  and  _106
REMARK   40  A    between atoms: _112  and  _114
REMARK   41  A    between atoms: _125  and  _128
REMARK   42  A    between atoms: _128  and  _129
REMARK   43  A    between atoms: _137  and  _138
REMARK   44  A    between atoms: _146  and  _148
REMARK   45  A    between atoms: _148  and  _149
REMARK   46  A    between atoms: _148  and  _151
REMARK   47  A    between atoms: _151  and  _152
REMARK   48  A    between atoms: _152  and  _153
REMARK   49  A    between atoms: _156  and  _158
REMARK   50  A    between atoms: _158  and  _159
REMARK   51  A    between atoms: _158  and  _161
REMARK   52  A    between atoms: _161  and  _162
REMARK   53  A    between atoms: _167  and  _169
REMARK   54  A    between atoms: _169  and  _170
REMARK   55  A    between atoms: _169  and  _172
REMARK   56  A    between atoms: _172  and  _173
REMARK   57  A    between atoms: _173  and  _174
REMARK   58  A    between atoms: _177  and  _179
REMARK   59  A    between atoms: _179  and  _180
REMARK   60  A    between atoms: _179  and  _182
REMARK   61  A    between atoms: _182  and  _183
REMARK   62  A    between atoms: _186  and  _188
REMARK   63  A    between atoms: _188  and  _189
REMARK   64  A    between atoms: _188  and  _191
REMARK   65  A    between atoms: _191  and  _192
REMARK   66  A    between atoms: _193  and  ZN_443
REMARK   67  A    between atoms: _197  and  _199
REMARK   68  A    between atoms: _199  and  _200
REMARK   69  A    between atoms: _199  and  _202
REMARK   70  A    between atoms: _202  and  _203
REMARK   71  A    between atoms: _206  and  _208
REMARK   72  A    between atoms: _208  and  _209
REMARK   73  A    between atoms: _208  and  _211
REMARK   74  A    between atoms: _214  and  _216
REMARK   75  A    between atoms: _216  and  _217
REMARK   76  A    between atoms: _216  and  _219
REMARK   77  A    between atoms: _219  and  _220
REMARK   78  A    between atoms: _225  and  _227
REMARK   79  A    between atoms: _227  and  _228
REMARK   80  A    between atoms: _227  and  _230
REMARK   81  A    between atoms: _230  and  _231
REMARK   82  A    between atoms: _237  and  _239
REMARK   83  A    between atoms: _239  and  _240
REMARK   84  A    between atoms: _242  and  _244
REMARK   85  A    between atoms: _244  and  _245
REMARK   86  A    between atoms: _244  and  _247
REMARK   87  A    between atoms: _247  and  _248
REMARK   88  A    between atoms: _248  and  _249
REMARK   89  A    between atoms: _249  and  _250
REMARK   90  A    between atoms: _250  and  _251
REMARK   91  A    between atoms: _255  and  _257
REMARK   92  A    between atoms: _257  and  _258
REMARK   93  A    between atoms: _257  and  _260
REMARK   94  A    between atoms: _263  and  _265
REMARK   95  A    between atoms: _265  and  _266
REMARK   96  A    between atoms: _265  and  _268
REMARK   97  A    between atoms: _268  and  _269
REMARK   98  A    between atoms: _269  and  _270
REMARK   99  A    between atoms: _275  and  _277
REMARK  100  A    between atoms: _277  and  _278
REMARK  101  A    between atoms: _277  and  _280
REMARK  102  A    between atoms: _280  and  _281
REMARK  103  A    between atoms: _284  and  _286
REMARK  104  A    between atoms: _286  and  _287
REMARK  105  A    between atoms: _290  and  _292
REMARK  106  A    between atoms: _292  and  _293
REMARK  107  A    between atoms: _292  and  _295
REMARK  108  A    between atoms: _298  and  _300
REMARK  109  A    between atoms: _300  and  _301
REMARK  110  A    between atoms: _300  and  _303
REMARK  111  A    between atoms: _303  and  _304
REMARK  112  A    between atoms: _307  and  _309
REMARK  113  A    between atoms: _309  and  _310
REMARK  114  A    between atoms: _312  and  _314
REMARK  115  A    between atoms: _314  and  _315
REMARK  116  A    between atoms: _317  and  _319
REMARK  117  A    between atoms: _319  and  _320
REMARK  118  A    between atoms: _319  and  _322
REMARK  119  A    between atoms: _322  and  _323
REMARK  120  A    between atoms: _325  and  _327
REMARK  121  A    between atoms: _327  and  _328
REMARK  122  A    between atoms: _327  and  _330
REMARK  123  A    between atoms: _330  and  _331
REMARK  124  A    between atoms: _334  and  _336
REMARK  125  A    between atoms: _336  and  _337
REMARK  126  A    between atoms: _336  and  _339
REMARK  127  A    between atoms: _339  and  _340
REMARK  128  A    between atoms: _343  and  _345
REMARK  129  A    between atoms: _345  and  _346
REMARK  130  A    between atoms: _345  and  _348
REMARK  131  A    between atoms: _348  and  _349
REMARK  132  A    between atoms: _353  and  _354
REMARK  133  A    between atoms: _360  and  _361
REMARK  134  A    between atoms: _366  and  _368
REMARK  135  A    between atoms: _368  and  _369
REMARK  136  A    between atoms: _368  and  _371
REMARK  137  A    between atoms: _371  and  _372
REMARK  138  A    between atoms: _375  and  _377
REMARK  139  A    between atoms: _377  and  _378
REMARK  140  A    between atoms: _377  and  _380
REMARK  141  A    between atoms: _380  and  _381
REMARK  142  A    between atoms: _384  and  _386
REMARK  143  A    between atoms: _386  and  _387
REMARK  144  A    between atoms: _386  and  _389
REMARK  145  A    between atoms: _391  and  _393
REMARK  146  A    between atoms: _393  and  _394
REMARK  147  A    between atoms: _393  and  _396
REMARK  148  A    between atoms: _399  and  _401
REMARK  149  A    between atoms: _401  and  _402
REMARK  150  A    between atoms: _401  and  _404
REMARK  151  A    between atoms: _404  and  _405
REMARK  152  A    between atoms: _415  and  _417
REMARK  153  A    between atoms: _417  and  _418
REMARK  154  A    between atoms: _417  and  _420
REMARK  155  A    between atoms: _420  and  _421
REMARK  156  A    between atoms: _426  and  _428
REMARK  157  A    between atoms: _428  and  _429
REMARK  158  A    between atoms: _428  and  _431
REMARK  159  A    between atoms: _431  and  _432
REMARK  160  A    between atoms: _432  and  _433
REMARK  161  A    between atoms: _433  and  _434
REMARK                            x       y       z     vdW  Elec       q    Type
REMARK                         _______ _______ _______ _____ _____    ______ ____
ROOT
ATOM      1  O   HOH     1      -7.091   6.000   6.282  0.00  0.00    +0.000 OA
ENDROOT
TORSDOF 0
REMARK  Name = ../refined-set-2016/3sbi/3sbi_pocket.pdb
REMARK  161 active torsions:
REMARK  status: ('A' for Active; 'I' for Inactive)
REMARK    1  A    between atoms: _1  and  _3
REMARK    2  A    between atoms: _3  and  _4
REMARK    3  A    between atoms: _3  and  _6
REMARK    4  A    between atoms: _6  and  _7
REMARK    5  A    between atoms: _17  and  _19
REMARK    6  A    between atoms: _19  and  _20
REMARK    7  A    between atoms: _19  and  _22
REMARK    8  A    between atoms: _22  and  _23
REMARK    9  A    between atoms: _28  and  _29
REMARK   10  A    between atoms: _31  and  _33
REMARK   11  A    between atoms: _33  and  _34
REMARK   12  A    between atoms: _33  and  _36
REMARK   13  A    between atoms: _36  and  _37
REMARK   14  A    between atoms: _40  and  _41
REMARK   15  A    between atoms: _46  and  _48
REMARK   16  A    between atoms: _48  and  _49
REMARK   17  A    between atoms: _48  and  _51
REMARK   18  A    between atoms: _51  and  _52
REMARK   19  A    between atoms: _57  and  _59
REMARK   20  A    between atoms: _59  and  _60
REMARK   21  A    between atoms: _59  and  _62
REMARK   22  A    between atoms: _62  and  _63
REMARK   23  A    between atoms: _68  and  _70
REMARK   24  A    between atoms: _70  and  _71
REMARK   25  A    between atoms: _70  and  _73
REMARK   26  A    between atoms: _73  and  _74
REMARK   27  A    between atoms: _79  and  _81
REMARK   28  A    between atoms: _81  and  _82
REMARK   29  A    between atoms: _81  and  _84
REMARK   30  A    between atoms: _84  and  _85
REMARK   31  A    between atoms: _88  and  _90
REMARK   32  A    between atoms: _90  and  _91
REMARK   33  A    between atoms: _90  and  _93
REMARK   34  A    between atoms: _93  and  _94
REMARK   35  A    between atoms: _94  and  _95
REMARK   36  A    between atoms: _100  and  _102
REMARK   37  A    between atoms: _102  and  _103
REMARK   38  A    between atoms: _102  and  _105
REMARK   39  A    between atoms: _105  and  _106
REMARK   40  A    between atoms: _112  and  _114
REMARK   41  A    between atoms: _125  and  _128
REMARK   42  A    between atoms: _128  and  _129
REMARK   43  A    between atoms: _137  and  _138
REMARK   44  A    between atoms: _146  and  _148
REMARK   45  A    between atoms: _148  and  _149
REMARK   46  A    between atoms: _148  and  _151
REMARK   47  A    between atoms: _151  and  _152
REMARK   48  A    between atoms: _152  and  _153
REMARK   49  A    between atoms: _156  and  _158
REMARK   50  A    between atoms: _158  and  _159
REMARK   51  A    between atoms: _158  and  _161
REMARK   52  A    between atoms: _161  and  _162
REMARK   53  A    between atoms: _167  and  _169
REMARK   54  A    between atoms: _169  and  _170
REMARK   55  A    between atoms: _169  and  _172
REMARK   56  A    between atoms: _172  and  _173
REMARK   57  A    between atoms: _173  and  _174
REMARK   58  A    between atoms: _177  and  _179
REMARK   59  A    between atoms: _179  and  _180
REMARK   60  A    between atoms: _179  and  _182
REMARK   61  A    between atoms: _182  and  _183
REMARK   62  A    between atoms: _186  and  _188
REMARK   63  A    between atoms: _188  and  _189
REMARK   64  A    between atoms: _188  and  _191
REMARK   65  A    between atoms: _191  and  _192
REMARK   66  A    between atoms: _193  and  ZN_443
REMARK   67  A    between atoms: _197  and  _199
REMARK   68  A    between atoms: _199  and  _200
REMARK   69  A    between atoms: _199  and  _202
REMARK   70  A    between atoms: _202  and  _203
REMARK   71  A    between atoms: _206  and  _208
REMARK   72  A    between atoms: _208  and  _209
REMARK   73  A    between atoms: _208  and  _211
REMARK   74  A    between atoms: _214  and  _216
REMARK   75  A    between atoms: _216  and  _217
REMARK   76  A    between atoms: _216  and  _219
REMARK   77  A    between atoms: _219  and  _220
REMARK   78  A    between atoms: _225  and  _227
REMARK   79  A    between atoms: _227  and  _228
REMARK   80  A    between atoms: _227  and  _230
REMARK   81  A    between atoms: _230  and  _231
REMARK   82  A    between atoms: _237  and  _239
REMARK   83  A    between atoms: _239  and  _240
REMARK   84  A    between atoms: _242  and  _244
REMARK   85  A    between atoms: _244  and  _245
REMARK   86  A    between atoms: _244  and  _247
REMARK   87  A    between atoms: _247  and  _248
REMARK   88  A    between atoms: _248  and  _249
REMARK   89  A    between atoms: _249  and  _250
REMARK   90  A    between atoms: _250  and  _251
REMARK   91  A    between atoms: _255  and  _257
REMARK   92  A    between atoms: _257  and  _258
REMARK   93  A    between atoms: _257  and  _260
REMARK   94  A    between atoms: _263  and  _265
REMARK   95  A    between atoms: _265  and  _266
REMARK   96  A    between atoms: _265  and  _268
REMARK   97  A    between atoms: _268  and  _269
REMARK   98  A    between atoms: _269  and  _270
REMARK   99  A    between atoms: _275  and  _277
REMARK  100  A    between atoms: _277  and  _278
REMARK  101  A    between atoms: _277  and  _280
REMARK  102  A    between atoms: _280  and  _281
REMARK  103  A    between atoms: _284  and  _286
REMARK  104  A    between atoms: _286  and  _287
REMARK  105  A    between atoms: _290  and  _292
REMARK  106  A    between atoms: _292  and  _293
REMARK  107  A    between atoms: _292  and  _295
REMARK  108  A    between atoms: _298  and  _300
REMARK  109  A    between atoms: _300  and  _301
REMARK  110  A    between atoms: _300  and  _303
REMARK  111  A    between atoms: _303  and  _304
REMARK  112  A    between atoms: _307  and  _309
REMARK  113  A    between atoms: _309  and  _310
REMARK  114  A    between atoms: _312  and  _314
REMARK  115  A    between atoms: _314  and  _315
REMARK  116  A    between atoms: _317  and  _319
REMARK  117  A    between atoms: _319  and  _320
REMARK  118  A    between atoms: _319  and  _322
REMARK  119  A    between atoms: _322  and  _323
REMARK  120  A    between atoms: _325  and  _327
REMARK  121  A    between atoms: _327  and  _328
REMARK  122  A    between atoms: _327  and  _330
REMARK  123  A    between atoms: _330  and  _331
REMARK  124  A    between atoms: _334  and  _336
REMARK  125  A    between atoms: _336  and  _337
REMARK  126  A    between atoms: _336  and  _339
REMARK  127  A    between atoms: _339  and  _340
REMARK  128  A    between atoms: _343  and  _345
REMARK  129  A    between atoms: _345  and  _346
REMARK  130  A    between atoms: _345  and  _348
REMARK  131  A    between atoms: _348  and  _349
REMARK  132  A    between atoms: _353  and  _354
REMARK  133  A    between atoms: _360  and  _361
REMARK  134  A    between atoms: _366  and  _368
REMARK  135  A    between atoms: _368  and  _369
REMARK  136  A    between atoms: _368  and  _371
REMARK  137  A    between atoms: _371  and  _372
REMARK  138  A    between atoms: _375  and  _377
REMARK  139  A    between atoms: _377  and  _378
REMARK  140  A    between atoms: _377  and  _380
REMARK  141  A    between atoms: _380  and  _381
REMARK  142  A    between atoms: _384  and  _386
REMARK  143  A    between atoms: _386  and  _387
REMARK  144  A    between atoms: _386  and  _389
REMARK  145  A    between atoms: _391  and  _393
REMARK  146  A    between atoms: _393  and  _394
REMARK  147  A    between atoms: _393  and  _396
REMARK  148  A    between atoms: _399  and  _401
REMARK  149  A    between atoms: _401  and  _402
REMARK  150  A    between atoms: _401  and  _404
REMARK  151  A    between atoms: _404  and  _405
REMARK  152  A    between atoms: _415  and  _417
REMARK  153  A    between atoms: _417  and  _418
REMARK  154  A    between atoms: _417  and  _420
REMARK  155  A    between atoms: _420  and  _421
REMARK  156  A    between atoms: _426  and  _428
REMARK  157  A    between atoms: _428  and  _429
REMARK  158  A    between atoms: _428  and  _431
REMARK  159  A    between atoms: _431  and  _432
REMARK  160  A    between atoms: _432  and  _433
REMARK  161  A    between atoms: _433  and  _434
REMARK                            x       y       z     vdW  Elec       q    Type
REMARK                         _______ _______ _______ _____ _____    ______ ____
ROOT
ATOM      1  O   HOH     1      -1.449   1.759  11.589  0.00  0.00    +0.000 OA
ENDROOT
TORSDOF 0
REMARK  Name = ../refined-set-2016/3sbi/3sbi_pocket.pdb
REMARK  161 active torsions:
REMARK  status: ('A' for Active; 'I' for Inactive)
REMARK    1  A    between atoms: _1  and  _3
REMARK    2  A    between atoms: _3  and  _4
REMARK    3  A    between atoms: _3  and  _6
REMARK    4  A    between atoms: _6  and  _7
REMARK    5  A    between atoms: _17  and  _19
REMARK    6  A    between atoms: _19  and  _20
REMARK    7  A    between atoms: _19  and  _22
REMARK    8  A    between atoms: _22  and  _23
REMARK    9  A    between atoms: _28  and  _29
REMARK   10  A    between atoms: _31  and  _33
REMARK   11  A    between atoms: _33  and  _34
REMARK   12  A    between atoms: _33  and  _36
REMARK   13  A    between atoms: _36  and  _37
REMARK   14  A    between atoms: _40  and  _41
REMARK   15  A    between atoms: _46  and  _48
REMARK   16  A    between atoms: _48  and  _49
REMARK   17  A    between atoms: _48  and  _51
REMARK   18  A    between atoms: _51  and  _52
REMARK   19  A    between atoms: _57  and  _59
REMARK   20  A    between atoms: _59  and  _60
REMARK   21  A    between atoms: _59  and  _62
REMARK   22  A    between atoms: _62  and  _63
REMARK   23  A    between atoms: _68  and  _70
REMARK   24  A    between atoms: _70  and  _71
REMARK   25  A    between atoms: _70  and  _73
REMARK   26  A    between atoms: _73  and  _74
REMARK   27  A    between atoms: _79  and  _81
REMARK   28  A    between atoms: _81  and  _82
REMARK   29  A    between atoms: _81  and  _84
REMARK   30  A    between atoms: _84  and  _85
REMARK   31  A    between atoms: _88  and  _90
REMARK   32  A    between atoms: _90  and  _91
REMARK   33  A    between atoms: _90  and  _93
REMARK   34  A    between atoms: _93  and  _94
REMARK   35  A    between atoms: _94  and  _95
REMARK   36  A    between atoms: _100  and  _102
REMARK   37  A    between atoms: _102  and  _103
REMARK   38  A    between atoms: _102  and  _105
REMARK   39  A    between atoms: _105  and  _106
REMARK   40  A    between atoms: _112  and  _114
REMARK   41  A    between atoms: _125  and  _128
REMARK   42  A    between atoms: _128  and  _129
REMARK   43  A    between atoms: _137  and  _138
REMARK   44  A    between atoms: _146  and  _148
REMARK   45  A    between atoms: _148  and  _149
REMARK   46  A    between atoms: _148  and  _151
REMARK   47  A    between atoms: _151  and  _152
REMARK   48  A    between atoms: _152  and  _153
REMARK   49  A    between atoms: _156  and  _158
REMARK   50  A    between atoms: _158  and  _159
REMARK   51  A    between atoms: _158  and  _161
REMARK   52  A    between atoms: _161  and  _162
REMARK   53  A    between atoms: _167  and  _169
REMARK   54  A    between atoms: _169  and  _170
REMARK   55  A    between atoms: _169  and  _172
REMARK   56  A    between atoms: _172  and  _173
REMARK   57  A    between atoms: _173  and  _174
REMARK   58  A    between atoms: _177  and  _179
REMARK   59  A    between atoms: _179  and  _180
REMARK   60  A    between atoms: _179  and  _182
REMARK   61  A    between atoms: _182  and  _183
REMARK   62  A    between atoms: _186  and  _188
REMARK   63  A    between atoms: _188  and  _189
REMARK   64  A    between atoms: _188  and  _191
REMARK   65  A    between atoms: _191  and  _192
REMARK   66  A    between atoms: _193  and  ZN_443
REMARK   67  A    between atoms: _197  and  _199
REMARK   68  A    between atoms: _199  and  _200
REMARK   69  A    between atoms: _199  and  _202
REMARK   70  A    between atoms: _202  and  _203
REMARK   71  A    between atoms: _206  and  _208
REMARK   72  A    between atoms: _208  and  _209
REMARK   73  A    between atoms: _208  and  _211
REMARK   74  A    between atoms: _214  and  _216
REMARK   75  A    between atoms: _216  and  _217
REMARK   76  A    between atoms: _216  and  _219
REMARK   77  A    between atoms: _219  and  _220
REMARK   78  A    between atoms: _225  and  _227
REMARK   79  A    between atoms: _227  and  _228
REMARK   80  A    between atoms: _227  and  _230
REMARK   81  A    between atoms: _230  and  _231
REMARK   82  A    between atoms: _237  and  _239
REMARK   83  A    between atoms: _239  and  _240
REMARK   84  A    between atoms: _242  and  _244
REMARK   85  A    between atoms: _244  and  _245
REMARK   86  A    between atoms: _244  and  _247
REMARK   87  A    between atoms: _247  and  _248
REMARK   88  A    between atoms: _248  and  _249
REMARK   89  A    between atoms: _249  and  _250
REMARK   90  A    between atoms: _250  and  _251
REMARK   91  A    between atoms: _255  and  _257
REMARK   92  A    between atoms: _257  and  _258
REMARK   93  A    between atoms: _257  and  _260
REMARK   94  A    between atoms: _263  and  _265
REMARK   95  A    between atoms: _265  and  _266
REMARK   96  A    between atoms: _265  and  _268
REMARK   97  A    between atoms: _268  and  _269
REMARK   98  A    between atoms: _269  and  _270
REMARK   99  A    between atoms: _275  and  _277
REMARK  100  A    between atoms: _277  and  _278
REMARK  101  A    between atoms: _277  and  _280
REMARK  102  A    between atoms: _280  and  _281
REMARK  103  A    between atoms: _284  and  _286
REMARK  104  A    between atoms: _286  and  _287
REMARK  105  A    between atoms: _290  and  _292
REMARK  106  A    between atoms: _292  and  _293
REMARK  107  A    between atoms: _292  and  _295
REMARK  108  A    between atoms: _298  and  _300
REMARK  109  A    between atoms: _300  and  _301
REMARK  110  A    between atoms: _300  and  _303
REMARK  111  A    between atoms: _303  and  _304
REMARK  112  A    between atoms: _307  and  _309
REMARK  113  A    between atoms: _309  and  _310
REMARK  114  A    between atoms: _312  and  _314
REMARK  115  A    between atoms: _314  and  _315
REMARK  116  A    between atoms: _317  and  _319
REMARK  117  A    between atoms: _319  and  _320
REMARK  118  A    between atoms: _319  and  _322
REMARK  119  A    between atoms: _322  and  _323
REMARK  120  A    between atoms: _325  and  _327
REMARK  121  A    between atoms: _327  and  _328
REMARK  122  A    between atoms: _327  and  _330
REMARK  123  A    between atoms: _330  and  _331
REMARK  124  A    between atoms: _334  and  _336
REMARK  125  A    between atoms: _336  and  _337
REMARK  126  A    between atoms: _336  and  _339
REMARK  127  A    between atoms: _339  and  _340
REMARK  128  A    between atoms: _343  and  _345
REMARK  129  A    between atoms: _345  and  _346
REMARK  130  A    between atoms: _345  and  _348
REMARK  131  A    between atoms: _348  and  _349
REMARK  132  A    between atoms: _353  and  _354
REMARK  133  A    between atoms: _360  and  _361
REMARK  134  A    between atoms: _366  and  _368
REMARK  135  A    between atoms: _368  and  _369
REMARK  136  A    between atoms: _368  and  _371
REMARK  137  A    between atoms: _371  and  _372
REMARK  138  A    between atoms: _375  and  _377
REMARK  139  A    between atoms: _377  and  _378
REMARK  140  A    between atoms: _377  and  _380
REMARK  141  A    between atoms: _380  and  _381
REMARK  142  A    between atoms: _384  and  _386
REMARK  143  A    between atoms: _386  and  _387
REMARK  144  A    between atoms: _386  and  _389
REMARK  145  A    between atoms: _391  and  _393
REMARK  146  A    between atoms: _393  and  _394
REMARK  147  A    between atoms: _393  and  _396
REMARK  148  A    between atoms: _399  and  _401
REMARK  149  A    between atoms: _401  and  _402
REMARK  150  A    between atoms: _401  and  _404
REMARK  151  A    between atoms: _404  and  _405
REMARK  152  A    between atoms: _415  and  _417
REMARK  153  A    between atoms: _417  and  _418
REMARK  154  A    between atoms: _417  and  _420
REMARK  155  A    between atoms: _420  and  _421
REMARK  156  A    between atoms: _426  and  _428
REMARK  157  A    between atoms: _428  and  _429
REMARK  158  A    between atoms: _428  and  _431
REMARK  159  A    between atoms: _431  and  _432
REMARK  160  A    between atoms: _432  and  _433
REMARK  161  A    between atoms: _433  and  _434
REMARK                            x       y       z     vdW  Elec       q    Type
REMARK                         _______ _______ _______ _____ _____    ______ ____
ROOT
ATOM      1  O   HOH     1      -4.495   4.220  10.345  0.00  0.00    +0.000 OA
ENDROOT
TORSDOF 0
REMARK  Name = ../refined-set-2016/3sbi/3sbi_pocket.pdb
REMARK  161 active torsions:
REMARK  status: ('A' for Active; 'I' for Inactive)
REMARK    1  A    between atoms: _1  and  _3
REMARK    2  A    between atoms: _3  and  _4
REMARK    3  A    between atoms: _3  and  _6
REMARK    4  A    between atoms: _6  and  _7
REMARK    5  A    between atoms: _17  and  _19
REMARK    6  A    between atoms: _19  and  _20
REMARK    7  A    between atoms: _19  and  _22
REMARK    8  A    between atoms: _22  and  _23
REMARK    9  A    between atoms: _28  and  _29
REMARK   10  A    between atoms: _31  and  _33
REMARK   11  A    between atoms: _33  and  _34
REMARK   12  A    between atoms: _33  and  _36
REMARK   13  A    between atoms: _36  and  _37
REMARK   14  A    between atoms: _40  and  _41
REMARK   15  A    between atoms: _46  and  _48
REMARK   16  A    between atoms: _48  and  _49
REMARK   17  A    between atoms: _48  and  _51
REMARK   18  A    between atoms: _51  and  _52
REMARK   19  A    between atoms: _57  and  _59
REMARK   20  A    between atoms: _59  and  _60
REMARK   21  A    between atoms: _59  and  _62
REMARK   22  A    between atoms: _62  and  _63
REMARK   23  A    between atoms: _68  and  _70
REMARK   24  A    between atoms: _70  and  _71
REMARK   25  A    between atoms: _70  and  _73
REMARK   26  A    between atoms: _73  and  _74
REMARK   27  A    between atoms: _79  and  _81
REMARK   28  A    between atoms: _81  and  _82
REMARK   29  A    between atoms: _81  and  _84
REMARK   30  A    between atoms: _84  and  _85
REMARK   31  A    between atoms: _88  and  _90
REMARK   32  A    between atoms: _90  and  _91
REMARK   33  A    between atoms: _90  and  _93
REMARK   34  A    between atoms: _93  and  _94
REMARK   35  A    between atoms: _94  and  _95
REMARK   36  A    between atoms: _100  and  _102
REMARK   37  A    between atoms: _102  and  _103
REMARK   38  A    between atoms: _102  and  _105
REMARK   39  A    between atoms: _105  and  _106
REMARK   40  A    between atoms: _112  and  _114
REMARK   41  A    between atoms: _125  and  _128
REMARK   42  A    between atoms: _128  and  _129
REMARK   43  A    between atoms: _137  and  _138
REMARK   44  A    between atoms: _146  and  _148
REMARK   45  A    between atoms: _148  and  _149
REMARK   46  A    between atoms: _148  and  _151
REMARK   47  A    between atoms: _151  and  _152
REMARK   48  A    between atoms: _152  and  _153
REMARK   49  A    between atoms: _156  and  _158
REMARK   50  A    between atoms: _158  and  _159
REMARK   51  A    between atoms: _158  and  _161
REMARK   52  A    between atoms: _161  and  _162
REMARK   53  A    between atoms: _167  and  _169
REMARK   54  A    between atoms: _169  and  _170
REMARK   55  A    between atoms: _169  and  _172
REMARK   56  A    between atoms: _172  and  _173
REMARK   57  A    between atoms: _173  and  _174
REMARK   58  A    between atoms: _177  and  _179
REMARK   59  A    between atoms: _179  and  _180
REMARK   60  A    between atoms: _179  and  _182
REMARK   61  A    between atoms: _182  and  _183
REMARK   62  A    between atoms: _186  and  _188
REMARK   63  A    between atoms: _188  and  _189
REMARK   64  A    between atoms: _188  and  _191
REMARK   65  A    between atoms: _191  and  _192
REMARK   66  A    between atoms: _193  and  ZN_443
REMARK   67  A    between atoms: _197  and  _199
REMARK   68  A    between atoms: _199  and  _200
REMARK   69  A    between atoms: _199  and  _202
REMARK   70  A    between atoms: _202  and  _203
REMARK   71  A    between atoms: _206  and  _208
REMARK   72  A    between atoms: _208  and  _209
REMARK   73  A    between atoms: _208  and  _211
REMARK   74  A    between atoms: _214  and  _216
REMARK   75  A    between atoms: _216  and  _217
REMARK   76  A    between atoms: _216  and  _219
REMARK   77  A    between atoms: _219  and  _220
REMARK   78  A    between atoms: _225  and  _227
REMARK   79  A    between atoms: _227  and  _228
REMARK   80  A    between atoms: _227  and  _230
REMARK   81  A    between atoms: _230  and  _231
REMARK   82  A    between atoms: _237  and  _239
REMARK   83  A    between atoms: _239  and  _240
REMARK   84  A    between atoms: _242  and  _244
REMARK   85  A    between atoms: _244  and  _245
REMARK   86  A    between atoms: _244  and  _247
REMARK   87  A    between atoms: _247  and  _248
REMARK   88  A    between atoms: _248  and  _249
REMARK   89  A    between atoms: _249  and  _250
REMARK   90  A    between atoms: _250  and  _251
REMARK   91  A    between atoms: _255  and  _257
REMARK   92  A    between atoms: _257  and  _258
REMARK   93  A    between atoms: _257  and  _260
REMARK   94  A    between atoms: _263  and  _265
REMARK   95  A    between atoms: _265  and  _266
REMARK   96  A    between atoms: _265  and  _268
REMARK   97  A    between atoms: _268  and  _269
REMARK   98  A    between atoms: _269  and  _270
REMARK   99  A    between atoms: _275  and  _277
REMARK  100  A    between atoms: _277  and  _278
REMARK  101  A    between atoms: _277  and  _280
REMARK  102  A    between atoms: _280  and  _281
REMARK  103  A    between atoms: _284  and  _286
REMARK  104  A    between atoms: _286  and  _287
REMARK  105  A    between atoms: _290  and  _292
REMARK  106  A    between atoms: _292  and  _293
REMARK  107  A    between atoms: _292  and  _295
REMARK  108  A    between atoms: _298  and  _300
REMARK  109  A    between atoms: _300  and  _301
REMARK  110  A    between atoms: _300  and  _303
REMARK  111  A    between atoms: _303  and  _304
REMARK  112  A    between atoms: _307  and  _309
REMARK  113  A    between atoms: _309  and  _310
REMARK  114  A    between atoms: _312  and  _314
REMARK  115  A    between atoms: _314  and  _315
REMARK  116  A    between atoms: _317  and  _319
REMARK  117  A    between atoms: _319  and  _320
REMARK  118  A    between atoms: _319  and  _322
REMARK  119  A    between atoms: _322  and  _323
REMARK  120  A    between atoms: _325  and  _327
REMARK  121  A    between atoms: _327  and  _328
REMARK  122  A    between atoms: _327  and  _330
REMARK  123  A    between atoms: _330  and  _331
REMARK  124  A    between atoms: _334  and  _336
REMARK  125  A    between atoms: _336  and  _337
REMARK  126  A    between atoms: _336  and  _339
REMARK  127  A    between atoms: _339  and  _340
REMARK  128  A    between atoms: _343  and  _345
REMARK  129  A    between atoms: _345  and  _346
REMARK  130  A    between atoms: _345  and  _348
REMARK  131  A    between atoms: _348  and  _349
REMARK  132  A    between atoms: _353  and  _354
REMARK  133  A    between atoms: _360  and  _361
REMARK  134  A    between atoms: _366  and  _368
REMARK  135  A    between atoms: _368  and  _369
REMARK  136  A    between atoms: _368  and  _371
REMARK  137  A    between atoms: _371  and  _372
REMARK  138  A    between atoms: _375  and  _377
REMARK  139  A    between atoms: _377  and  _378
REMARK  140  A    between atoms: _377  and  _380
REMARK  141  A    between atoms: _380  and  _381
REMARK  142  A    between atoms: _384  and  _386
REMARK  143  A    between atoms: _386  and  _387
REMARK  144  A    between atoms: _386  and  _389
REMARK  145  A    between atoms: _391  and  _393
REMARK  146  A    between atoms: _393  and  _394
REMARK  147  A    between atoms: _393  and  _396
REMARK  148  A    between atoms: _399  and  _401
REMARK  149  A    between atoms: _401  and  _402
REMARK  150  A    between atoms: _401  and  _404
REMARK  151  A    between atoms: _404  and  _405
REMARK  152  A    between atoms: _415  and  _417
REMARK  153  A    between atoms: _417  and  _418
REMARK  154  A    between atoms: _417  and  _420
REMARK  155  A    between atoms: _420  and  _421
REMARK  156  A    between atoms: _426  and  _428
REMARK  157  A    between atoms: _428  and  _429
REMARK  158  A    between atoms: _428  and  _431
REMARK  159  A    between atoms: _431  and  _432
REMARK  160  A    between atoms: _432  and  _433
REMARK  161  A    between atoms: _433  and  _434
REMARK                            x       y       z     vdW  Elec       q    Type
REMARK                         _______ _______ _______ _____ _____    ______ ____
ROOT
ATOM      1  O   HOH     1      -2.608  -3.206  11.465  0.00  0.00    +0.000 OA
ENDROOT
TORSDOF 0
REMARK  Name = ../refined-set-2016/3sbi/3sbi_pocket.pdb
REMARK  161 active torsions:
REMARK  status: ('A' for Active; 'I' for Inactive)
REMARK    1  A    between atoms: _1  and  _3
REMARK    2  A    between atoms: _3  and  _4
REMARK    3  A    between atoms: _3  and  _6
REMARK    4  A    between atoms: _6  and  _7
REMARK    5  A    between atoms: _17  and  _19
REMARK    6  A    between atoms: _19  and  _20
REMARK    7  A    between atoms: _19  and  _22
REMARK    8  A    between atoms: _22  and  _23
REMARK    9  A    between atoms: _28  and  _29
REMARK   10  A    between atoms: _31  and  _33
REMARK   11  A    between atoms: _33  and  _34
REMARK   12  A    between atoms: _33  and  _36
REMARK   13  A    between atoms: _36  and  _37
REMARK   14  A    between atoms: _40  and  _41
REMARK   15  A    between atoms: _46  and  _48
REMARK   16  A    between atoms: _48  and  _49
REMARK   17  A    between atoms: _48  and  _51
REMARK   18  A    between atoms: _51  and  _52
REMARK   19  A    between atoms: _57  and  _59
REMARK   20  A    between atoms: _59  and  _60
REMARK   21  A    between atoms: _59  and  _62
REMARK   22  A    between atoms: _62  and  _63
REMARK   23  A    between atoms: _68  and  _70
REMARK   24  A    between atoms: _70  and  _71
REMARK   25  A    between atoms: _70  and  _73
REMARK   26  A    between atoms: _73  and  _74
REMARK   27  A    between atoms: _79  and  _81
REMARK   28  A    between atoms: _81  and  _82
REMARK   29  A    between atoms: _81  and  _84
REMARK   30  A    between atoms: _84  and  _85
REMARK   31  A    between atoms: _88  and  _90
REMARK   32  A    between atoms: _90  and  _91
REMARK   33  A    between atoms: _90  and  _93
REMARK   34  A    between atoms: _93  and  _94
REMARK   35  A    between atoms: _94  and  _95
REMARK   36  A    between atoms: _100  and  _102
REMARK   37  A    between atoms: _102  and  _103
REMARK   38  A    between atoms: _102  and  _105
REMARK   39  A    between atoms: _105  and  _106
REMARK   40  A    between atoms: _112  and  _114
REMARK   41  A    between atoms: _125  and  _128
REMARK   42  A    between atoms: _128  and  _129
REMARK   43  A    between atoms: _137  and  _138
REMARK   44  A    between atoms: _146  and  _148
REMARK   45  A    between atoms: _148  and  _149
REMARK   46  A    between atoms: _148  and  _151
REMARK   47  A    between atoms: _151  and  _152
REMARK   48  A    between atoms: _152  and  _153
REMARK   49  A    between atoms: _156  and  _158
REMARK   50  A    between atoms: _158  and  _159
REMARK   51  A    between atoms: _158  and  _161
REMARK   52  A    between atoms: _161  and  _162
REMARK   53  A    between atoms: _167  and  _169
REMARK   54  A    between atoms: _169  and  _170
REMARK   55  A    between atoms: _169  and  _172
REMARK   56  A    between atoms: _172  and  _173
REMARK   57  A    between atoms: _173  and  _174
REMARK   58  A    between atoms: _177  and  _179
REMARK   59  A    between atoms: _179  and  _180
REMARK   60  A    between atoms: _179  and  _182
REMARK   61  A    between atoms: _182  and  _183
REMARK   62  A    between atoms: _186  and  _188
REMARK   63  A    between atoms: _188  and  _189
REMARK   64  A    between atoms: _188  and  _191
REMARK   65  A    between atoms: _191  and  _192
REMARK   66  A    between atoms: _193  and  ZN_443
REMARK   67  A    between atoms: _197  and  _199
REMARK   68  A    between atoms: _199  and  _200
REMARK   69  A    between atoms: _199  and  _202
REMARK   70  A    between atoms: _202  and  _203
REMARK   71  A    between atoms: _206  and  _208
REMARK   72  A    between atoms: _208  and  _209
REMARK   73  A    between atoms: _208  and  _211
REMARK   74  A    between atoms: _214  and  _216
REMARK   75  A    between atoms: _216  and  _217
REMARK   76  A    between atoms: _216  and  _219
REMARK   77  A    between atoms: _219  and  _220
REMARK   78  A    between atoms: _225  and  _227
REMARK   79  A    between atoms: _227  and  _228
REMARK   80  A    between atoms: _227  and  _230
REMARK   81  A    between atoms: _230  and  _231
REMARK   82  A    between atoms: _237  and  _239
REMARK   83  A    between atoms: _239  and  _240
REMARK   84  A    between atoms: _242  and  _244
REMARK   85  A    between atoms: _244  and  _245
REMARK   86  A    between atoms: _244  and  _247
REMARK   87  A    between atoms: _247  and  _248
REMARK   88  A    between atoms: _248  and  _249
REMARK   89  A    between atoms: _249  and  _250
REMARK   90  A    between atoms: _250  and  _251
REMARK   91  A    between atoms: _255  and  _257
REMARK   92  A    between atoms: _257  and  _258
REMARK   93  A    between atoms: _257  and  _260
REMARK   94  A    between atoms: _263  and  _265
REMARK   95  A    between atoms: _265  and  _266
REMARK   96  A    between atoms: _265  and  _268
REMARK   97  A    between atoms: _268  and  _269
REMARK   98  A    between atoms: _269  and  _270
REMARK   99  A    between atoms: _275  and  _277
REMARK  100  A    between atoms: _277  and  _278
REMARK  101  A    between atoms: _277  and  _280
REMARK  102  A    between atoms: _280  and  _281
REMARK  103  A    between atoms: _284  and  _286
REMARK  104  A    between atoms: _286  and  _287
REMARK  105  A    between atoms: _290  and  _292
REMARK  106  A    between atoms: _292  and  _293
REMARK  107  A    between atoms: _292  and  _295
REMARK  108  A    between atoms: _298  and  _300
REMARK  109  A    between atoms: _300  and  _301
REMARK  110  A    between atoms: _300  and  _303
REMARK  111  A    between atoms: _303  and  _304
REMARK  112  A    between atoms: _307  and  _309
REMARK  113  A    between atoms: _309  and  _310
REMARK  114  A    between atoms: _312  and  _314
REMARK  115  A    between atoms: _314  and  _315
REMARK  116  A    between atoms: _317  and  _319
REMARK  117  A    between atoms: _319  and  _320
REMARK  118  A    between atoms: _319  and  _322
REMARK  119  A    between atoms: _322  and  _323
REMARK  120  A    between atoms: _325  and  _327
REMARK  121  A    between atoms: _327  and  _328
REMARK  122  A    between atoms: _327  and  _330
REMARK  123  A    between atoms: _330  and  _331
REMARK  124  A    between atoms: _334  and  _336
REMARK  125  A    between atoms: _336  and  _337
REMARK  126  A    between atoms: _336  and  _339
REMARK  127  A    between atoms: _339  and  _340
REMARK  128  A    between atoms: _343  and  _345
REMARK  129  A    between atoms: _345  and  _346
REMARK  130  A    between atoms: _345  and  _348
REMARK  131  A    between atoms: _348  and  _349
REMARK  132  A    between atoms: _353  and  _354
REMARK  133  A    between atoms: _360  and  _361
REMARK  134  A    between atoms: _366  and  _368
REMARK  135  A    between atoms: _368  and  _369
REMARK  136  A    between atoms: _368  and  _371
REMARK  137  A    between atoms: _371  and  _372
REMARK  138  A    between atoms: _375  and  _377
REMARK  139  A    between atoms: _377  and  _378
REMARK  140  A    between atoms: _377  and  _380
REMARK  141  A    between atoms: _380  and  _381
REMARK  142  A    between atoms: _384  and  _386
REMARK  143  A    between atoms: _386  and  _387
REMARK  144  A    between atoms: _386  and  _389
REMARK  145  A    between atoms: _391  and  _393
REMARK  146  A    between atoms: _393  and  _394
REMARK  147  A    between atoms: _393  and  _396
REMARK  148  A    between atoms: _399  and  _401
REMARK  149  A    between atoms: _401  and  _402
REMARK  150  A    between atoms: _401  and  _404
REMARK  151  A    between atoms: _404  and  _405
REMARK  152  A    between atoms: _415  and  _417
REMARK  153  A    between atoms: _417  and  _418
REMARK  154  A    between atoms: _417  and  _420
REMARK  155  A    between atoms: _420  and  _421
REMARK  156  A    between atoms: _426  and  _428
REMARK  157  A    between atoms: _428  and  _429
REMARK  158  A    between atoms: _428  and  _431
REMARK  159  A    between atoms: _431  and  _432
REMARK  160  A    between atoms: _432  and  _433
REMARK  161  A    between atoms: _433  and  _434
REMARK                            x       y       z     vdW  Elec       q    Type
REMARK                         _______ _______ _______ _____ _____    ______ ____
ROOT
ATOM      1  O   HOH     1      -0.179   3.507  10.092  0.00  0.00    +0.000 OA
ENDROOT
TORSDOF 0
REMARK  Name = ../refined-set-2016/3sbi/3sbi_pocket.pdb
REMARK  161 active torsions:
REMARK  status: ('A' for Active; 'I' for Inactive)
REMARK    1  A    between atoms: _1  and  _3
REMARK    2  A    between atoms: _3  and  _4
REMARK    3  A    between atoms: _3  and  _6
REMARK    4  A    between atoms: _6  and  _7
REMARK    5  A    between atoms: _17  and  _19
REMARK    6  A    between atoms: _19  and  _20
REMARK    7  A    between atoms: _19  and  _22
REMARK    8  A    between atoms: _22  and  _23
REMARK    9  A    between atoms: _28  and  _29
REMARK   10  A    between atoms: _31  and  _33
REMARK   11  A    between atoms: _33  and  _34
REMARK   12  A    between atoms: _33  and  _36
REMARK   13  A    between atoms: _36  and  _37
REMARK   14  A    between atoms: _40  and  _41
REMARK   15  A    between atoms: _46  and  _48
REMARK   16  A    between atoms: _48  and  _49
REMARK   17  A    between atoms: _48  and  _51
REMARK   18  A    between atoms: _51  and  _52
REMARK   19  A    between atoms: _57  and  _59
REMARK   20  A    between atoms: _59  and  _60
REMARK   21  A    between atoms: _59  and  _62
REMARK   22  A    between atoms: _62  and  _63
REMARK   23  A    between atoms: _68  and  _70
REMARK   24  A    between atoms: _70  and  _71
REMARK   25  A    between atoms: _70  and  _73
REMARK   26  A    between atoms: _73  and  _74
REMARK   27  A    between atoms: _79  and  _81
REMARK   28  A    between atoms: _81  and  _82
REMARK   29  A    between atoms: _81  and  _84
REMARK   30  A    between atoms: _84  and  _85
REMARK   31  A    between atoms: _88  and  _90
REMARK   32  A    between atoms: _90  and  _91
REMARK   33  A    between atoms: _90  and  _93
REMARK   34  A    between atoms: _93  and  _94
REMARK   35  A    between atoms: _94  and  _95
REMARK   36  A    between atoms: _100  and  _102
REMARK   37  A    between atoms: _102  and  _103
REMARK   38  A    between atoms: _102  and  _105
REMARK   39  A    between atoms: _105  and  _106
REMARK   40  A    between atoms: _112  and  _114
REMARK   41  A    between atoms: _125  and  _128
REMARK   42  A    between atoms: _128  and  _129
REMARK   43  A    between atoms: _137  and  _138
REMARK   44  A    between atoms: _146  and  _148
REMARK   45  A    between atoms: _148  and  _149
REMARK   46  A    between atoms: _148  and  _151
REMARK   47  A    between atoms: _151  and  _152
REMARK   48  A    between atoms: _152  and  _153
REMARK   49  A    between atoms: _156  and  _158
REMARK   50  A    between atoms: _158  and  _159
REMARK   51  A    between atoms: _158  and  _161
REMARK   52  A    between atoms: _161  and  _162
REMARK   53  A    between atoms: _167  and  _169
REMARK   54  A    between atoms: _169  and  _170
REMARK   55  A    between atoms: _169  and  _172
REMARK   56  A    between atoms: _172  and  _173
REMARK   57  A    between atoms: _173  and  _174
REMARK   58  A    between atoms: _177  and  _179
REMARK   59  A    between atoms: _179  and  _180
REMARK   60  A    between atoms: _179  and  _182
REMARK   61  A    between atoms: _182  and  _183
REMARK   62  A    between atoms: _186  and  _188
REMARK   63  A    between atoms: _188  and  _189
REMARK   64  A    between atoms: _188  and  _191
REMARK   65  A    between atoms: _191  and  _192
REMARK   66  A    between atoms: _193  and  ZN_443
REMARK   67  A    between atoms: _197  and  _199
REMARK   68  A    between atoms: _199  and  _200
REMARK   69  A    between atoms: _199  and  _202
REMARK   70  A    between atoms: _202  and  _203
REMARK   71  A    between atoms: _206  and  _208
REMARK   72  A    between atoms: _208  and  _209
REMARK   73  A    between atoms: _208  and  _211
REMARK   74  A    between atoms: _214  and  _216
REMARK   75  A    between atoms: _216  and  _217
REMARK   76  A    between atoms: _216  and  _219
REMARK   77  A    between atoms: _219  and  _220
REMARK   78  A    between atoms: _225  and  _227
REMARK   79  A    between atoms: _227  and  _228
REMARK   80  A    between atoms: _227  and  _230
REMARK   81  A    between atoms: _230  and  _231
REMARK   82  A    between atoms: _237  and  _239
REMARK   83  A    between atoms: _239  and  _240
REMARK   84  A    between atoms: _242  and  _244
REMARK   85  A    between atoms: _244  and  _245
REMARK   86  A    between atoms: _244  and  _247
REMARK   87  A    between atoms: _247  and  _248
REMARK   88  A    between atoms: _248  and  _249
REMARK   89  A    between atoms: _249  and  _250
REMARK   90  A    between atoms: _250  and  _251
REMARK   91  A    between atoms: _255  and  _257
REMARK   92  A    between atoms: _257  and  _258
REMARK   93  A    between atoms: _257  and  _260
REMARK   94  A    between atoms: _263  and  _265
REMARK   95  A    between atoms: _265  and  _266
REMARK   96  A    between atoms: _265  and  _268
REMARK   97  A    between atoms: _268  and  _269
REMARK   98  A    between atoms: _269  and  _270
REMARK   99  A    between atoms: _275  and  _277
REMARK  100  A    between atoms: _277  and  _278
REMARK  101  A    between atoms: _277  and  _280
REMARK  102  A    between atoms: _280  and  _281
REMARK  103  A    between atoms: _284  and  _286
REMARK  104  A    between atoms: _286  and  _287
REMARK  105  A    between atoms: _290  and  _292
REMARK  106  A    between atoms: _292  and  _293
REMARK  107  A    between atoms: _292  and  _295
REMARK  108  A    between atoms: _298  and  _300
REMARK  109  A    between atoms: _300  and  _301
REMARK  110  A    between atoms: _300  and  _303
REMARK  111  A    between atoms: _303  and  _304
REMARK  112  A    between atoms: _307  and  _309
REMARK  113  A    between atoms: _309  and  _310
REMARK  114  A    between atoms: _312  and  _314
REMARK  115  A    between atoms: _314  and  _315
REMARK  116  A    between atoms: _317  and  _319
REMARK  117  A    between atoms: _319  and  _320
REMARK  118  A    between atoms: _319  and  _322
REMARK  119  A    between atoms: _322  and  _323
REMARK  120  A    between atoms: _325  and  _327
REMARK  121  A    between atoms: _327  and  _328
REMARK  122  A    between atoms: _327  and  _330
REMARK  123  A    between atoms: _330  and  _331
REMARK  124  A    between atoms: _334  and  _336
REMARK  125  A    between atoms: _336  and  _337
REMARK  126  A    between atoms: _336  and  _339
REMARK  127  A    between atoms: _339  and  _340
REMARK  128  A    between atoms: _343  and  _345
REMARK  129  A    between atoms: _345  and  _346
REMARK  130  A    between atoms: _345  and  _348
REMARK  131  A    between atoms: _348  and  _349
REMARK  132  A    between atoms: _353  and  _354
REMARK  133  A    between atoms: _360  and  _361
REMARK  134  A    between atoms: _366  and  _368
REMARK  135  A    between atoms: _368  and  _369
REMARK  136  A    between atoms: _368  and  _371
REMARK  137  A    between atoms: _371  and  _372
REMARK  138  A    between atoms: _375  and  _377
REMARK  139  A    between atoms: _377  and  _378
REMARK  140  A    between atoms: _377  and  _380
REMARK  141  A    between atoms: _380  and  _381
REMARK  142  A    between atoms: _384  and  _386
REMARK  143  A    between atoms: _386  and  _387
REMARK  144  A    between atoms: _386  and  _389
REMARK  145  A    between atoms: _391  and  _393
REMARK  146  A    between atoms: _393  and  _394
REMARK  147  A    between atoms: _393  and  _396
REMARK  148  A    between atoms: _399  and  _401
REMARK  149  A    between atoms: _401  and  _402
REMARK  150  A    between atoms: _401  and  _404
REMARK  151  A    between atoms: _404  and  _405
REMARK  152  A    between atoms: _415  and  _417
REMARK  153  A    between atoms: _417  and  _418
REMARK  154  A    between atoms: _417  and  _420
REMARK  155  A    between atoms: _420  and  _421
REMARK  156  A    between atoms: _426  and  _428
REMARK  157  A    between atoms: _428  and  _429
REMARK  158  A    between atoms: _428  and  _431
REMARK  159  A    between atoms: _431  and  _432
REMARK  160  A    between atoms: _432  and  _433
REMARK  161  A    between atoms: _433  and  _434
REMARK                            x       y       z     vdW  Elec       q    Type
REMARK                         _______ _______ _______ _____ _____    ______ ____
ROOT
ATOM      1  O   HOH     1      -2.590   4.497   8.455  0.00  0.00    +0.000 OA
ENDROOT
TORSDOF 0
REMARK  Name = ../refined-set-2016/3sbi/3sbi_pocket.pdb
REMARK  161 active torsions:
REMARK  status: ('A' for Active; 'I' for Inactive)
REMARK    1  A    between atoms: _1  and  _3
REMARK    2  A    between atoms: _3  and  _4
REMARK    3  A    between atoms: _3  and  _6
REMARK    4  A    between atoms: _6  and  _7
REMARK    5  A    between atoms: _17  and  _19
REMARK    6  A    between atoms: _19  and  _20
REMARK    7  A    between atoms: _19  and  _22
REMARK    8  A    between atoms: _22  and  _23
REMARK    9  A    between atoms: _28  and  _29
REMARK   10  A    between atoms: _31  and  _33
REMARK   11  A    between atoms: _33  and  _34
REMARK   12  A    between atoms: _33  and  _36
REMARK   13  A    between atoms: _36  and  _37
REMARK   14  A    between atoms: _40  and  _41
REMARK   15  A    between atoms: _46  and  _48
REMARK   16  A    between atoms: _48  and  _49
REMARK   17  A    between atoms: _48  and  _51
REMARK   18  A    between atoms: _51  and  _52
REMARK   19  A    between atoms: _57  and  _59
REMARK   20  A    between atoms: _59  and  _60
REMARK   21  A    between atoms: _59  and  _62
REMARK   22  A    between atoms: _62  and  _63
REMARK   23  A    between atoms: _68  and  _70
REMARK   24  A    between atoms: _70  and  _71
REMARK   25  A    between atoms: _70  and  _73
REMARK   26  A    between atoms: _73  and  _74
REMARK   27  A    between atoms: _79  and  _81
REMARK   28  A    between atoms: _81  and  _82
REMARK   29  A    between atoms: _81  and  _84
REMARK   30  A    between atoms: _84  and  _85
REMARK   31  A    between atoms: _88  and  _90
REMARK   32  A    between atoms: _90  and  _91
REMARK   33  A    between atoms: _90  and  _93
REMARK   34  A    between atoms: _93  and  _94
REMARK   35  A    between atoms: _94  and  _95
REMARK   36  A    between atoms: _100  and  _102
REMARK   37  A    between atoms: _102  and  _103
REMARK   38  A    between atoms: _102  and  _105
REMARK   39  A    between atoms: _105  and  _106
REMARK   40  A    between atoms: _112  and  _114
REMARK   41  A    between atoms: _125  and  _128
REMARK   42  A    between atoms: _128  and  _129
REMARK   43  A    between atoms: _137  and  _138
REMARK   44  A    between atoms: _146  and  _148
REMARK   45  A    between atoms: _148  and  _149
REMARK   46  A    between atoms: _148  and  _151
REMARK   47  A    between atoms: _151  and  _152
REMARK   48  A    between atoms: _152  and  _153
REMARK   49  A    between atoms: _156  and  _158
REMARK   50  A    between atoms: _158  and  _159
REMARK   51  A    between atoms: _158  and  _161
REMARK   52  A    between atoms: _161  and  _162
REMARK   53  A    between atoms: _167  and  _169
REMARK   54  A    between atoms: _169  and  _170
REMARK   55  A    between atoms: _169  and  _172
REMARK   56  A    between atoms: _172  and  _173
REMARK   57  A    between atoms: _173  and  _174
REMARK   58  A    between atoms: _177  and  _179
REMARK   59  A    between atoms: _179  and  _180
REMARK   60  A    between atoms: _179  and  _182
REMARK   61  A    between atoms: _182  and  _183
REMARK   62  A    between atoms: _186  and  _188
REMARK   63  A    between atoms: _188  and  _189
REMARK   64  A    between atoms: _188  and  _191
REMARK   65  A    between atoms: _191  and  _192
REMARK   66  A    between atoms: _193  and  ZN_443
REMARK   67  A    between atoms: _197  and  _199
REMARK   68  A    between atoms: _199  and  _200
REMARK   69  A    between atoms: _199  and  _202
REMARK   70  A    between atoms: _202  and  _203
REMARK   71  A    between atoms: _206  and  _208
REMARK   72  A    between atoms: _208  and  _209
REMARK   73  A    between atoms: _208  and  _211
REMARK   74  A    between atoms: _214  and  _216
REMARK   75  A    between atoms: _216  and  _217
REMARK   76  A    between atoms: _216  and  _219
REMARK   77  A    between atoms: _219  and  _220
REMARK   78  A    between atoms: _225  and  _227
REMARK   79  A    between atoms: _227  and  _228
REMARK   80  A    between atoms: _227  and  _230
REMARK   81  A    between atoms: _230  and  _231
REMARK   82  A    between atoms: _237  and  _239
REMARK   83  A    between atoms: _239  and  _240
REMARK   84  A    between atoms: _242  and  _244
REMARK   85  A    between atoms: _244  and  _245
REMARK   86  A    between atoms: _244  and  _247
REMARK   87  A    between atoms: _247  and  _248
REMARK   88  A    between atoms: _248  and  _249
REMARK   89  A    between atoms: _249  and  _250
REMARK   90  A    between atoms: _250  and  _251
REMARK   91  A    between atoms: _255  and  _257
REMARK   92  A    between atoms: _257  and  _258
REMARK   93  A    between atoms: _257  and  _260
REMARK   94  A    between atoms: _263  and  _265
REMARK   95  A    between atoms: _265  and  _266
REMARK   96  A    between atoms: _265  and  _268
REMARK   97  A    between atoms: _268  and  _269
REMARK   98  A    between atoms: _269  and  _270
REMARK   99  A    between atoms: _275  and  _277
REMARK  100  A    between atoms: _277  and  _278
REMARK  101  A    between atoms: _277  and  _280
REMARK  102  A    between atoms: _280  and  _281
REMARK  103  A    between atoms: _284  and  _286
REMARK  104  A    between atoms: _286  and  _287
REMARK  105  A    between atoms: _290  and  _292
REMARK  106  A    between atoms: _292  and  _293
REMARK  107  A    between atoms: _292  and  _295
REMARK  108  A    between atoms: _298  and  _300
REMARK  109  A    between atoms: _300  and  _301
REMARK  110  A    between atoms: _300  and  _303
REMARK  111  A    between atoms: _303  and  _304
REMARK  112  A    between atoms: _307  and  _309
REMARK  113  A    between atoms: _309  and  _310
REMARK  114  A    between atoms: _312  and  _314
REMARK  115  A    between atoms: _314  and  _315
REMARK  116  A    between atoms: _317  and  _319
REMARK  117  A    between atoms: _319  and  _320
REMARK  118  A    between atoms: _319  and  _322
REMARK  119  A    between atoms: _322  and  _323
REMARK  120  A    between atoms: _325  and  _327
REMARK  121  A    between atoms: _327  and  _328
REMARK  122  A    between atoms: _327  and  _330
REMARK  123  A    between atoms: _330  and  _331
REMARK  124  A    between atoms: _334  and  _336
REMARK  125  A    between atoms: _336  and  _337
REMARK  126  A    between atoms: _336  and  _339
REMARK  127  A    between atoms: _339  and  _340
REMARK  128  A    between atoms: _343  and  _345
REMARK  129  A    between atoms: _345  and  _346
REMARK  130  A    between atoms: _345  and  _348
REMARK  131  A    between atoms: _348  and  _349
REMARK  132  A    between atoms: _353  and  _354
REMARK  133  A    between atoms: _360  and  _361
REMARK  134  A    between atoms: _366  and  _368
REMARK  135  A    between atoms: _368  and  _369
REMARK  136  A    between atoms: _368  and  _371
REMARK  137  A    between atoms: _371  and  _372
REMARK  138  A    between atoms: _375  and  _377
REMARK  139  A    between atoms: _377  and  _378
REMARK  140  A    between atoms: _377  and  _380
REMARK  141  A    between atoms: _380  and  _381
REMARK  142  A    between atoms: _384  and  _386
REMARK  143  A    between atoms: _386  and  _387
REMARK  144  A    between atoms: _386  and  _389
REMARK  145  A    between atoms: _391  and  _393
REMARK  146  A    between atoms: _393  and  _394
REMARK  147  A    between atoms: _393  and  _396
REMARK  148  A    between atoms: _399  and  _401
REMARK  149  A    between atoms: _401  and  _402
REMARK  150  A    between atoms: _401  and  _404
REMARK  151  A    between atoms: _404  and  _405
REMARK  152  A    between atoms: _415  and  _417
REMARK  153  A    between atoms: _417  and  _418
REMARK  154  A    between atoms: _417  and  _420
REMARK  155  A    between atoms: _420  and  _421
REMARK  156  A    between atoms: _426  and  _428
REMARK  157  A    between atoms: _428  and  _429
REMARK  158  A    between atoms: _428  and  _431
REMARK  159  A    between atoms: _431  and  _432
REMARK  160  A    between atoms: _432  and  _433
REMARK  161  A    between atoms: _433  and  _434
REMARK                            x       y       z     vdW  Elec       q    Type
REMARK                         _______ _______ _______ _____ _____    ______ ____
ROOT
ATOM      1  O   HOH     1      -3.073  -0.212  10.559  0.00  0.00    +0.000 OA
ENDROOT
TORSDOF 0
REMARK  Name = ../refined-set-2016/3sbi/3sbi_pocket.pdb
REMARK  161 active torsions:
REMARK  status: ('A' for Active; 'I' for Inactive)
REMARK    1  A    between atoms: _1  and  _3
REMARK    2  A    between atoms: _3  and  _4
REMARK    3  A    between atoms: _3  and  _6
REMARK    4  A    between atoms: _6  and  _7
REMARK    5  A    between atoms: _17  and  _19
REMARK    6  A    between atoms: _19  and  _20
REMARK    7  A    between atoms: _19  and  _22
REMARK    8  A    between atoms: _22  and  _23
REMARK    9  A    between atoms: _28  and  _29
REMARK   10  A    between atoms: _31  and  _33
REMARK   11  A    between atoms: _33  and  _34
REMARK   12  A    between atoms: _33  and  _36
REMARK   13  A    between atoms: _36  and  _37
REMARK   14  A    between atoms: _40  and  _41
REMARK   15  A    between atoms: _46  and  _48
REMARK   16  A    between atoms: _48  and  _49
REMARK   17  A    between atoms: _48  and  _51
REMARK   18  A    between atoms: _51  and  _52
REMARK   19  A    between atoms: _57  and  _59
REMARK   20  A    between atoms: _59  and  _60
REMARK   21  A    between atoms: _59  and  _62
REMARK   22  A    between atoms: _62  and  _63
REMARK   23  A    between atoms: _68  and  _70
REMARK   24  A    between atoms: _70  and  _71
REMARK   25  A    between atoms: _70  and  _73
REMARK   26  A    between atoms: _73  and  _74
REMARK   27  A    between atoms: _79  and  _81
REMARK   28  A    between atoms: _81  and  _82
REMARK   29  A    between atoms: _81  and  _84
REMARK   30  A    between atoms: _84  and  _85
REMARK   31  A    between atoms: _88  and  _90
REMARK   32  A    between atoms: _90  and  _91
REMARK   33  A    between atoms: _90  and  _93
REMARK   34  A    between atoms: _93  and  _94
REMARK   35  A    between atoms: _94  and  _95
REMARK   36  A    between atoms: _100  and  _102
REMARK   37  A    between atoms: _102  and  _103
REMARK   38  A    between atoms: _102  and  _105
REMARK   39  A    between atoms: _105  and  _106
REMARK   40  A    between atoms: _112  and  _114
REMARK   41  A    between atoms: _125  and  _128
REMARK   42  A    between atoms: _128  and  _129
REMARK   43  A    between atoms: _137  and  _138
REMARK   44  A    between atoms: _146  and  _148
REMARK   45  A    between atoms: _148  and  _149
REMARK   46  A    between atoms: _148  and  _151
REMARK   47  A    between atoms: _151  and  _152
REMARK   48  A    between atoms: _152  and  _153
REMARK   49  A    between atoms: _156  and  _158
REMARK   50  A    between atoms: _158  and  _159
REMARK   51  A    between atoms: _158  and  _161
REMARK   52  A    between atoms: _161  and  _162
REMARK   53  A    between atoms: _167  and  _169
REMARK   54  A    between atoms: _169  and  _170
REMARK   55  A    between atoms: _169  and  _172
REMARK   56  A    between atoms: _172  and  _173
REMARK   57  A    between atoms: _173  and  _174
REMARK   58  A    between atoms: _177  and  _179
REMARK   59  A    between atoms: _179  and  _180
REMARK   60  A    between atoms: _179  and  _182
REMARK   61  A    between atoms: _182  and  _183
REMARK   62  A    between atoms: _186  and  _188
REMARK   63  A    between atoms: _188  and  _189
REMARK   64  A    between atoms: _188  and  _191
REMARK   65  A    between atoms: _191  and  _192
REMARK   66  A    between atoms: _193  and  ZN_443
REMARK   67  A    between atoms: _197  and  _199
REMARK   68  A    between atoms: _199  and  _200
REMARK   69  A    between atoms: _199  and  _202
REMARK   70  A    between atoms: _202  and  _203
REMARK   71  A    between atoms: _206  and  _208
REMARK   72  A    between atoms: _208  and  _209
REMARK   73  A    between atoms: _208  and  _211
REMARK   74  A    between atoms: _214  and  _216
REMARK   75  A    between atoms: _216  and  _217
REMARK   76  A    between atoms: _216  and  _219
REMARK   77  A    between atoms: _219  and  _220
REMARK   78  A    between atoms: _225  and  _227
REMARK   79  A    between atoms: _227  and  _228
REMARK   80  A    between atoms: _227  and  _230
REMARK   81  A    between atoms: _230  and  _231
REMARK   82  A    between atoms: _237  and  _239
REMARK   83  A    between atoms: _239  and  _240
REMARK   84  A    between atoms: _242  and  _244
REMARK   85  A    between atoms: _244  and  _245
REMARK   86  A    between atoms: _244  and  _247
REMARK   87  A    between atoms: _247  and  _248
REMARK   88  A    between atoms: _248  and  _249
REMARK   89  A    between atoms: _249  and  _250
REMARK   90  A    between atoms: _250  and  _251
REMARK   91  A    between atoms: _255  and  _257
REMARK   92  A    between atoms: _257  and  _258
REMARK   93  A    between atoms: _257  and  _260
REMARK   94  A    between atoms: _263  and  _265
REMARK   95  A    between atoms: _265  and  _266
REMARK   96  A    between atoms: _265  and  _268
REMARK   97  A    between atoms: _268  and  _269
REMARK   98  A    between atoms: _269  and  _270
REMARK   99  A    between atoms: _275  and  _277
REMARK  100  A    between atoms: _277  and  _278
REMARK  101  A    between atoms: _277  and  _280
REMARK  102  A    between atoms: _280  and  _281
REMARK  103  A    between atoms: _284  and  _286
REMARK  104  A    between atoms: _286  and  _287
REMARK  105  A    between atoms: _290  and  _292
REMARK  106  A    between atoms: _292  and  _293
REMARK  107  A    between atoms: _292  and  _295
REMARK  108  A    between atoms: _298  and  _300
REMARK  109  A    between atoms: _300  and  _301
REMARK  110  A    between atoms: _300  and  _303
REMARK  111  A    between atoms: _303  and  _304
REMARK  112  A    between atoms: _307  and  _309
REMARK  113  A    between atoms: _309  and  _310
REMARK  114  A    between atoms: _312  and  _314
REMARK  115  A    between atoms: _314  and  _315
REMARK  116  A    between atoms: _317  and  _319
REMARK  117  A    between atoms: _319  and  _320
REMARK  118  A    between atoms: _319  and  _322
REMARK  119  A    between atoms: _322  and  _323
REMARK  120  A    between atoms: _325  and  _327
REMARK  121  A    between atoms: _327  and  _328
REMARK  122  A    between atoms: _327  and  _330
REMARK  123  A    between atoms: _330  and  _331
REMARK  124  A    between atoms: _334  and  _336
REMARK  125  A    between atoms: _336  and  _337
REMARK  126  A    between atoms: _336  and  _339
REMARK  127  A    between atoms: _339  and  _340
REMARK  128  A    between atoms: _343  and  _345
REMARK  129  A    between atoms: _345  and  _346
REMARK  130  A    between atoms: _345  and  _348
REMARK  131  A    between atoms: _348  and  _349
REMARK  132  A    between atoms: _353  and  _354
REMARK  133  A    between atoms: _360  and  _361
REMARK  134  A    between atoms: _366  and  _368
REMARK  135  A    between atoms: _368  and  _369
REMARK  136  A    between atoms: _368  and  _371
REMARK  137  A    between atoms: _371  and  _372
REMARK  138  A    between atoms: _375  and  _377
REMARK  139  A    between atoms: _377  and  _378
REMARK  140  A    between atoms: _377  and  _380
REMARK  141  A    between atoms: _380  and  _381
REMARK  142  A    between atoms: _384  and  _386
REMARK  143  A    between atoms: _386  and  _387
REMARK  144  A    between atoms: _386  and  _389
REMARK  145  A    between atoms: _391  and  _393
REMARK  146  A    between atoms: _393  and  _394
REMARK  147  A    between atoms: _393  and  _396
REMARK  148  A    between atoms: _399  and  _401
REMARK  149  A    between atoms: _401  and  _402
REMARK  150  A    between atoms: _401  and  _404
REMARK  151  A    between atoms: _404  and  _405
REMARK  152  A    between atoms: _415  and  _417
REMARK  153  A    between atoms: _417  and  _418
REMARK  154  A    between atoms: _417  and  _420
REMARK  155  A    between atoms: _420  and  _421
REMARK  156  A    between atoms: _426  and  _428
REMARK  157  A    between atoms: _428  and  _429
REMARK  158  A    between atoms: _428  and  _431
REMARK  159  A    between atoms: _431  and  _432
REMARK  160  A    between atoms: _432  and  _433
REMARK  161  A    between atoms: _433  and  _434
REMARK                            x       y       z     vdW  Elec       q    Type
REMARK                         _______ _______ _______ _____ _____    ______ ____
ROOT
ATOM      1  O   HOH     1      -4.830   7.544   5.833  0.00  0.00    +0.000 OA
ENDROOT
TORSDOF 0
REMARK  Name = ../refined-set-2016/3sbi/3sbi_pocket.pdb
REMARK  161 active torsions:
REMARK  status: ('A' for Active; 'I' for Inactive)
REMARK    1  A    between atoms: _1  and  _3
REMARK    2  A    between atoms: _3  and  _4
REMARK    3  A    between atoms: _3  and  _6
REMARK    4  A    between atoms: _6  and  _7
REMARK    5  A    between atoms: _17  and  _19
REMARK    6  A    between atoms: _19  and  _20
REMARK    7  A    between atoms: _19  and  _22
REMARK    8  A    between atoms: _22  and  _23
REMARK    9  A    between atoms: _28  and  _29
REMARK   10  A    between atoms: _31  and  _33
REMARK   11  A    between atoms: _33  and  _34
REMARK   12  A    between atoms: _33  and  _36
REMARK   13  A    between atoms: _36  and  _37
REMARK   14  A    between atoms: _40  and  _41
REMARK   15  A    between atoms: _46  and  _48
REMARK   16  A    between atoms: _48  and  _49
REMARK   17  A    between atoms: _48  and  _51
REMARK   18  A    between atoms: _51  and  _52
REMARK   19  A    between atoms: _57  and  _59
REMARK   20  A    between atoms: _59  and  _60
REMARK   21  A    between atoms: _59  and  _62
REMARK   22  A    between atoms: _62  and  _63
REMARK   23  A    between atoms: _68  and  _70
REMARK   24  A    between atoms: _70  and  _71
REMARK   25  A    between atoms: _70  and  _73
REMARK   26  A    between atoms: _73  and  _74
REMARK   27  A    between atoms: _79  and  _81
REMARK   28  A    between atoms: _81  and  _82
REMARK   29  A    between atoms: _81  and  _84
REMARK   30  A    between atoms: _84  and  _85
REMARK   31  A    between atoms: _88  and  _90
REMARK   32  A    between atoms: _90  and  _91
REMARK   33  A    between atoms: _90  and  _93
REMARK   34  A    between atoms: _93  and  _94
REMARK   35  A    between atoms: _94  and  _95
REMARK   36  A    between atoms: _100  and  _102
REMARK   37  A    between atoms: _102  and  _103
REMARK   38  A    between atoms: _102  and  _105
REMARK   39  A    between atoms: _105  and  _106
REMARK   40  A    between atoms: _112  and  _114
REMARK   41  A    between atoms: _125  and  _128
REMARK   42  A    between atoms: _128  and  _129
REMARK   43  A    between atoms: _137  and  _138
REMARK   44  A    between atoms: _146  and  _148
REMARK   45  A    between atoms: _148  and  _149
REMARK   46  A    between atoms: _148  and  _151
REMARK   47  A    between atoms: _151  and  _152
REMARK   48  A    between atoms: _152  and  _153
REMARK   49  A    between atoms: _156  and  _158
REMARK   50  A    between atoms: _158  and  _159
REMARK   51  A    between atoms: _158  and  _161
REMARK   52  A    between atoms: _161  and  _162
REMARK   53  A    between atoms: _167  and  _169
REMARK   54  A    between atoms: _169  and  _170
REMARK   55  A    between atoms: _169  and  _172
REMARK   56  A    between atoms: _172  and  _173
REMARK   57  A    between atoms: _173  and  _174
REMARK   58  A    between atoms: _177  and  _179
REMARK   59  A    between atoms: _179  and  _180
REMARK   60  A    between atoms: _179  and  _182
REMARK   61  A    between atoms: _182  and  _183
REMARK   62  A    between atoms: _186  and  _188
REMARK   63  A    between atoms: _188  and  _189
REMARK   64  A    between atoms: _188  and  _191
REMARK   65  A    between atoms: _191  and  _192
REMARK   66  A    between atoms: _193  and  ZN_443
REMARK   67  A    between atoms: _197  and  _199
REMARK   68  A    between atoms: _199  and  _200
REMARK   69  A    between atoms: _199  and  _202
REMARK   70  A    between atoms: _202  and  _203
REMARK   71  A    between atoms: _206  and  _208
REMARK   72  A    between atoms: _208  and  _209
REMARK   73  A    between atoms: _208  and  _211
REMARK   74  A    between atoms: _214  and  _216
REMARK   75  A    between atoms: _216  and  _217
REMARK   76  A    between atoms: _216  and  _219
REMARK   77  A    between atoms: _219  and  _220
REMARK   78  A    between atoms: _225  and  _227
REMARK   79  A    between atoms: _227  and  _228
REMARK   80  A    between atoms: _227  and  _230
REMARK   81  A    between atoms: _230  and  _231
REMARK   82  A    between atoms: _237  and  _239
REMARK   83  A    between atoms: _239  and  _240
REMARK   84  A    between atoms: _242  and  _244
REMARK   85  A    between atoms: _244  and  _245
REMARK   86  A    between atoms: _244  and  _247
REMARK   87  A    between atoms: _247  and  _248
REMARK   88  A    between atoms: _248  and  _249
REMARK   89  A    between atoms: _249  and  _250
REMARK   90  A    between atoms: _250  and  _251
REMARK   91  A    between atoms: _255  and  _257
REMARK   92  A    between atoms: _257  and  _258
REMARK   93  A    between atoms: _257  and  _260
REMARK   94  A    between atoms: _263  and  _265
REMARK   95  A    between atoms: _265  and  _266
REMARK   96  A    between atoms: _265  and  _268
REMARK   97  A    between atoms: _268  and  _269
REMARK   98  A    between atoms: _269  and  _270
REMARK   99  A    between atoms: _275  and  _277
REMARK  100  A    between atoms: _277  and  _278
REMARK  101  A    between atoms: _277  and  _280
REMARK  102  A    between atoms: _280  and  _281
REMARK  103  A    between atoms: _284  and  _286
REMARK  104  A    between atoms: _286  and  _287
REMARK  105  A    between atoms: _290  and  _292
REMARK  106  A    between atoms: _292  and  _293
REMARK  107  A    between atoms: _292  and  _295
REMARK  108  A    between atoms: _298  and  _300
REMARK  109  A    between atoms: _300  and  _301
REMARK  110  A    between atoms: _300  and  _303
REMARK  111  A    between atoms: _303  and  _304
REMARK  112  A    between atoms: _307  and  _309
REMARK  113  A    between atoms: _309  and  _310
REMARK  114  A    between atoms: _312  and  _314
REMARK  115  A    between atoms: _314  and  _315
REMARK  116  A    between atoms: _317  and  _319
REMARK  117  A    between atoms: _319  and  _320
REMARK  118  A    between atoms: _319  and  _322
REMARK  119  A    between atoms: _322  and  _323
REMARK  120  A    between atoms: _325  and  _327
REMARK  121  A    between atoms: _327  and  _328
REMARK  122  A    between atoms: _327  and  _330
REMARK  123  A    between atoms: _330  and  _331
REMARK  124  A    between atoms: _334  and  _336
REMARK  125  A    between atoms: _336  and  _337
REMARK  126  A    between atoms: _336  and  _339
REMARK  127  A    between atoms: _339  and  _340
REMARK  128  A    between atoms: _343  and  _345
REMARK  129  A    between atoms: _345  and  _346
REMARK  130  A    between atoms: _345  and  _348
REMARK  131  A    between atoms: _348  and  _349
REMARK  132  A    between atoms: _353  and  _354
REMARK  133  A    between atoms: _360  and  _361
REMARK  134  A    between atoms: _366  and  _368
REMARK  135  A    between atoms: _368  and  _369
REMARK  136  A    between atoms: _368  and  _371
REMARK  137  A    between atoms: _371  and  _372
REMARK  138  A    between atoms: _375  and  _377
REMARK  139  A    between atoms: _377  and  _378
REMARK  140  A    between atoms: _377  and  _380
REMARK  141  A    between atoms: _380  and  _381
REMARK  142  A    between atoms: _384  and  _386
REMARK  143  A    between atoms: _386  and  _387
REMARK  144  A    between atoms: _386  and  _389
REMARK  145  A    between atoms: _391  and  _393
REMARK  146  A    between atoms: _393  and  _394
REMARK  147  A    between atoms: _393  and  _396
REMARK  148  A    between atoms: _399  and  _401
REMARK  149  A    between atoms: _401  and  _402
REMARK  150  A    between atoms: _401  and  _404
REMARK  151  A    between atoms: _404  and  _405
REMARK  152  A    between atoms: _415  and  _417
REMARK  153  A    between atoms: _417  and  _418
REMARK  154  A    between atoms: _417  and  _420
REMARK  155  A    between atoms: _420  and  _421
REMARK  156  A    between atoms: _426  and  _428
REMARK  157  A    between atoms: _428  and  _429
REMARK  158  A    between atoms: _428  and  _431
REMARK  159  A    between atoms: _431  and  _432
REMARK  160  A    between atoms: _432  and  _433
REMARK  161  A    between atoms: _433  and  _434
REMARK                            x       y       z     vdW  Elec       q    Type
REMARK                         _______ _______ _______ _____ _____    ______ ____
ROOT
ATOM      1  O   HOH     1      -4.479  -4.917  11.127  0.00  0.00    +0.000 OA
ENDROOT
TORSDOF 0
REMARK  Name = ../refined-set-2016/3sbi/3sbi_pocket.pdb
REMARK  161 active torsions:
REMARK  status: ('A' for Active; 'I' for Inactive)
REMARK    1  A    between atoms: _1  and  _3
REMARK    2  A    between atoms: _3  and  _4
REMARK    3  A    between atoms: _3  and  _6
REMARK    4  A    between atoms: _6  and  _7
REMARK    5  A    between atoms: _17  and  _19
REMARK    6  A    between atoms: _19  and  _20
REMARK    7  A    between atoms: _19  and  _22
REMARK    8  A    between atoms: _22  and  _23
REMARK    9  A    between atoms: _28  and  _29
REMARK   10  A    between atoms: _31  and  _33
REMARK   11  A    between atoms: _33  and  _34
REMARK   12  A    between atoms: _33  and  _36
REMARK   13  A    between atoms: _36  and  _37
REMARK   14  A    between atoms: _40  and  _41
REMARK   15  A    between atoms: _46  and  _48
REMARK   16  A    between atoms: _48  and  _49
REMARK   17  A    between atoms: _48  and  _51
REMARK   18  A    between atoms: _51  and  _52
REMARK   19  A    between atoms: _57  and  _59
REMARK   20  A    between atoms: _59  and  _60
REMARK   21  A    between atoms: _59  and  _62
REMARK   22  A    between atoms: _62  and  _63
REMARK   23  A    between atoms: _68  and  _70
REMARK   24  A    between atoms: _70  and  _71
REMARK   25  A    between atoms: _70  and  _73
REMARK   26  A    between atoms: _73  and  _74
REMARK   27  A    between atoms: _79  and  _81
REMARK   28  A    between atoms: _81  and  _82
REMARK   29  A    between atoms: _81  and  _84
REMARK   30  A    between atoms: _84  and  _85
REMARK   31  A    between atoms: _88  and  _90
REMARK   32  A    between atoms: _90  and  _91
REMARK   33  A    between atoms: _90  and  _93
REMARK   34  A    between atoms: _93  and  _94
REMARK   35  A    between atoms: _94  and  _95
REMARK   36  A    between atoms: _100  and  _102
REMARK   37  A    between atoms: _102  and  _103
REMARK   38  A    between atoms: _102  and  _105
REMARK   39  A    between atoms: _105  and  _106
REMARK   40  A    between atoms: _112  and  _114
REMARK   41  A    between atoms: _125  and  _128
REMARK   42  A    between atoms: _128  and  _129
REMARK   43  A    between atoms: _137  and  _138
REMARK   44  A    between atoms: _146  and  _148
REMARK   45  A    between atoms: _148  and  _149
REMARK   46  A    between atoms: _148  and  _151
REMARK   47  A    between atoms: _151  and  _152
REMARK   48  A    between atoms: _152  and  _153
REMARK   49  A    between atoms: _156  and  _158
REMARK   50  A    between atoms: _158  and  _159
REMARK   51  A    between atoms: _158  and  _161
REMARK   52  A    between atoms: _161  and  _162
REMARK   53  A    between atoms: _167  and  _169
REMARK   54  A    between atoms: _169  and  _170
REMARK   55  A    between atoms: _169  and  _172
REMARK   56  A    between atoms: _172  and  _173
REMARK   57  A    between atoms: _173  and  _174
REMARK   58  A    between atoms: _177  and  _179
REMARK   59  A    between atoms: _179  and  _180
REMARK   60  A    between atoms: _179  and  _182
REMARK   61  A    between atoms: _182  and  _183
REMARK   62  A    between atoms: _186  and  _188
REMARK   63  A    between atoms: _188  and  _189
REMARK   64  A    between atoms: _188  and  _191
REMARK   65  A    between atoms: _191  and  _192
REMARK   66  A    between atoms: _193  and  ZN_443
REMARK   67  A    between atoms: _197  and  _199
REMARK   68  A    between atoms: _199  and  _200
REMARK   69  A    between atoms: _199  and  _202
REMARK   70  A    between atoms: _202  and  _203
REMARK   71  A    between atoms: _206  and  _208
REMARK   72  A    between atoms: _208  and  _209
REMARK   73  A    between atoms: _208  and  _211
REMARK   74  A    between atoms: _214  and  _216
REMARK   75  A    between atoms: _216  and  _217
REMARK   76  A    between atoms: _216  and  _219
REMARK   77  A    between atoms: _219  and  _220
REMARK   78  A    between atoms: _225  and  _227
REMARK   79  A    between atoms: _227  and  _228
REMARK   80  A    between atoms: _227  and  _230
REMARK   81  A    between atoms: _230  and  _231
REMARK   82  A    between atoms: _237  and  _239
REMARK   83  A    between atoms: _239  and  _240
REMARK   84  A    between atoms: _242  and  _244
REMARK   85  A    between atoms: _244  and  _245
REMARK   86  A    between atoms: _244  and  _247
REMARK   87  A    between atoms: _247  and  _248
REMARK   88  A    between atoms: _248  and  _249
REMARK   89  A    between atoms: _249  and  _250
REMARK   90  A    between atoms: _250  and  _251
REMARK   91  A    between atoms: _255  and  _257
REMARK   92  A    between atoms: _257  and  _258
REMARK   93  A    between atoms: _257  and  _260
REMARK   94  A    between atoms: _263  and  _265
REMARK   95  A    between atoms: _265  and  _266
REMARK   96  A    between atoms: _265  and  _268
REMARK   97  A    between atoms: _268  and  _269
REMARK   98  A    between atoms: _269  and  _270
REMARK   99  A    between atoms: _275  and  _277
REMARK  100  A    between atoms: _277  and  _278
REMARK  101  A    between atoms: _277  and  _280
REMARK  102  A    between atoms: _280  and  _281
REMARK  103  A    between atoms: _284  and  _286
REMARK  104  A    between atoms: _286  and  _287
REMARK  105  A    between atoms: _290  and  _292
REMARK  106  A    between atoms: _292  and  _293
REMARK  107  A    between atoms: _292  and  _295
REMARK  108  A    between atoms: _298  and  _300
REMARK  109  A    between atoms: _300  and  _301
REMARK  110  A    between atoms: _300  and  _303
REMARK  111  A    between atoms: _303  and  _304
REMARK  112  A    between atoms: _307  and  _309
REMARK  113  A    between atoms: _309  and  _310
REMARK  114  A    between atoms: _312  and  _314
REMARK  115  A    between atoms: _314  and  _315
REMARK  116  A    between atoms: _317  and  _319
REMARK  117  A    between atoms: _319  and  _320
REMARK  118  A    between atoms: _319  and  _322
REMARK  119  A    between atoms: _322  and  _323
REMARK  120  A    between atoms: _325  and  _327
REMARK  121  A    between atoms: _327  and  _328
REMARK  122  A    between atoms: _327  and  _330
REMARK  123  A    between atoms: _330  and  _331
REMARK  124  A    between atoms: _334  and  _336
REMARK  125  A    between atoms: _336  and  _337
REMARK  126  A    between atoms: _336  and  _339
REMARK  127  A    between atoms: _339  and  _340
REMARK  128  A    between atoms: _343  and  _345
REMARK  129  A    between atoms: _345  and  _346
REMARK  130  A    between atoms: _345  and  _348
REMARK  131  A    between atoms: _348  and  _349
REMARK  132  A    between atoms: _353  and  _354
REMARK  133  A    between atoms: _360  and  _361
REMARK  134  A    between atoms: _366  and  _368
REMARK  135  A    between atoms: _368  and  _369
REMARK  136  A    between atoms: _368  and  _371
REMARK  137  A    between atoms: _371  and  _372
REMARK  138  A    between atoms: _375  and  _377
REMARK  139  A    between atoms: _377  and  _378
REMARK  140  A    between atoms: _377  and  _380
REMARK  141  A    between atoms: _380  and  _381
REMARK  142  A    between atoms: _384  and  _386
REMARK  143  A    between atoms: _386  and  _387
REMARK  144  A    between atoms: _386  and  _389
REMARK  145  A    between atoms: _391  and  _393
REMARK  146  A    between atoms: _393  and  _394
REMARK  147  A    between atoms: _393  and  _396
REMARK  148  A    between atoms: _399  and  _401
REMARK  149  A    between atoms: _401  and  _402
REMARK  150  A    between atoms: _401  and  _404
REMARK  151  A    between atoms: _404  and  _405
REMARK  152  A    between atoms: _415  and  _417
REMARK  153  A    between atoms: _417  and  _418
REMARK  154  A    between atoms: _417  and  _420
REMARK  155  A    between atoms: _420  and  _421
REMARK  156  A    between atoms: _426  and  _428
REMARK  157  A    between atoms: _428  and  _429
REMARK  158  A    between atoms: _428  and  _431
REMARK  159  A    between atoms: _431  and  _432
REMARK  160  A    between atoms: _432  and  _433
REMARK  161  A    between atoms: _433  and  _434
REMARK                            x       y       z     vdW  Elec       q    Type
REMARK                         _______ _______ _______ _____ _____    ______ ____
ROOT
ATOM      1  O   HOH     1      -0.483  14.006  16.179  0.00  0.00    +0.000 OA
ENDROOT
TORSDOF 0
REMARK  Name = ../refined-set-2016/3sbi/3sbi_pocket.pdb
REMARK  161 active torsions:
REMARK  status: ('A' for Active; 'I' for Inactive)
REMARK    1  A    between atoms: _1  and  _3
REMARK    2  A    between atoms: _3  and  _4
REMARK    3  A    between atoms: _3  and  _6
REMARK    4  A    between atoms: _6  and  _7
REMARK    5  A    between atoms: _17  and  _19
REMARK    6  A    between atoms: _19  and  _20
REMARK    7  A    between atoms: _19  and  _22
REMARK    8  A    between atoms: _22  and  _23
REMARK    9  A    between atoms: _28  and  _29
REMARK   10  A    between atoms: _31  and  _33
REMARK   11  A    between atoms: _33  and  _34
REMARK   12  A    between atoms: _33  and  _36
REMARK   13  A    between atoms: _36  and  _37
REMARK   14  A    between atoms: _40  and  _41
REMARK   15  A    between atoms: _46  and  _48
REMARK   16  A    between atoms: _48  and  _49
REMARK   17  A    between atoms: _48  and  _51
REMARK   18  A    between atoms: _51  and  _52
REMARK   19  A    between atoms: _57  and  _59
REMARK   20  A    between atoms: _59  and  _60
REMARK   21  A    between atoms: _59  and  _62
REMARK   22  A    between atoms: _62  and  _63
REMARK   23  A    between atoms: _68  and  _70
REMARK   24  A    between atoms: _70  and  _71
REMARK   25  A    between atoms: _70  and  _73
REMARK   26  A    between atoms: _73  and  _74
REMARK   27  A    between atoms: _79  and  _81
REMARK   28  A    between atoms: _81  and  _82
REMARK   29  A    between atoms: _81  and  _84
REMARK   30  A    between atoms: _84  and  _85
REMARK   31  A    between atoms: _88  and  _90
REMARK   32  A    between atoms: _90  and  _91
REMARK   33  A    between atoms: _90  and  _93
REMARK   34  A    between atoms: _93  and  _94
REMARK   35  A    between atoms: _94  and  _95
REMARK   36  A    between atoms: _100  and  _102
REMARK   37  A    between atoms: _102  and  _103
REMARK   38  A    between atoms: _102  and  _105
REMARK   39  A    between atoms: _105  and  _106
REMARK   40  A    between atoms: _112  and  _114
REMARK   41  A    between atoms: _125  and  _128
REMARK   42  A    between atoms: _128  and  _129
REMARK   43  A    between atoms: _137  and  _138
REMARK   44  A    between atoms: _146  and  _148
REMARK   45  A    between atoms: _148  and  _149
REMARK   46  A    between atoms: _148  and  _151
REMARK   47  A    between atoms: _151  and  _152
REMARK   48  A    between atoms: _152  and  _153
REMARK   49  A    between atoms: _156  and  _158
REMARK   50  A    between atoms: _158  and  _159
REMARK   51  A    between atoms: _158  and  _161
REMARK   52  A    between atoms: _161  and  _162
REMARK   53  A    between atoms: _167  and  _169
REMARK   54  A    between atoms: _169  and  _170
REMARK   55  A    between atoms: _169  and  _172
REMARK   56  A    between atoms: _172  and  _173
REMARK   57  A    between atoms: _173  and  _174
REMARK   58  A    between atoms: _177  and  _179
REMARK   59  A    between atoms: _179  and  _180
REMARK   60  A    between atoms: _179  and  _182
REMARK   61  A    between atoms: _182  and  _183
REMARK   62  A    between atoms: _186  and  _188
REMARK   63  A    between atoms: _188  and  _189
REMARK   64  A    between atoms: _188  and  _191
REMARK   65  A    between atoms: _191  and  _192
REMARK   66  A    between atoms: _193  and  ZN_443
REMARK   67  A    between atoms: _197  and  _199
REMARK   68  A    between atoms: _199  and  _200
REMARK   69  A    between atoms: _199  and  _202
REMARK   70  A    between atoms: _202  and  _203
REMARK   71  A    between atoms: _206  and  _208
REMARK   72  A    between atoms: _208  and  _209
REMARK   73  A    between atoms: _208  and  _211
REMARK   74  A    between atoms: _214  and  _216
REMARK   75  A    between atoms: _216  and  _217
REMARK   76  A    between atoms: _216  and  _219
REMARK   77  A    between atoms: _219  and  _220
REMARK   78  A    between atoms: _225  and  _227
REMARK   79  A    between atoms: _227  and  _228
REMARK   80  A    between atoms: _227  and  _230
REMARK   81  A    between atoms: _230  and  _231
REMARK   82  A    between atoms: _237  and  _239
REMARK   83  A    between atoms: _239  and  _240
REMARK   84  A    between atoms: _242  and  _244
REMARK   85  A    between atoms: _244  and  _245
REMARK   86  A    between atoms: _244  and  _247
REMARK   87  A    between atoms: _247  and  _248
REMARK   88  A    between atoms: _248  and  _249
REMARK   89  A    between atoms: _249  and  _250
REMARK   90  A    between atoms: _250  and  _251
REMARK   91  A    between atoms: _255  and  _257
REMARK   92  A    between atoms: _257  and  _258
REMARK   93  A    between atoms: _257  and  _260
REMARK   94  A    between atoms: _263  and  _265
REMARK   95  A    between atoms: _265  and  _266
REMARK   96  A    between atoms: _265  and  _268
REMARK   97  A    between atoms: _268  and  _269
REMARK   98  A    between atoms: _269  and  _270
REMARK   99  A    between atoms: _275  and  _277
REMARK  100  A    between atoms: _277  and  _278
REMARK  101  A    between atoms: _277  and  _280
REMARK  102  A    between atoms: _280  and  _281
REMARK  103  A    between atoms: _284  and  _286
REMARK  104  A    between atoms: _286  and  _287
REMARK  105  A    between atoms: _290  and  _292
REMARK  106  A    between atoms: _292  and  _293
REMARK  107  A    between atoms: _292  and  _295
REMARK  108  A    between atoms: _298  and  _300
REMARK  109  A    between atoms: _300  and  _301
REMARK  110  A    between atoms: _300  and  _303
REMARK  111  A    between atoms: _303  and  _304
REMARK  112  A    between atoms: _307  and  _309
REMARK  113  A    between atoms: _309  and  _310
REMARK  114  A    between atoms: _312  and  _314
REMARK  115  A    between atoms: _314  and  _315
REMARK  116  A    between atoms: _317  and  _319
REMARK  117  A    between atoms: _319  and  _320
REMARK  118  A    between atoms: _319  and  _322
REMARK  119  A    between atoms: _322  and  _323
REMARK  120  A    between atoms: _325  and  _327
REMARK  121  A    between atoms: _327  and  _328
REMARK  122  A    between atoms: _327  and  _330
REMARK  123  A    between atoms: _330  and  _331
REMARK  124  A    between atoms: _334  and  _336
REMARK  125  A    between atoms: _336  and  _337
REMARK  126  A    between atoms: _336  and  _339
REMARK  127  A    between atoms: _339  and  _340
REMARK  128  A    between atoms: _343  and  _345
REMARK  129  A    between atoms: _345  and  _346
REMARK  130  A    between atoms: _345  and  _348
REMARK  131  A    between atoms: _348  and  _349
REMARK  132  A    between atoms: _353  and  _354
REMARK  133  A    between atoms: _360  and  _361
REMARK  134  A    between atoms: _366  and  _368
REMARK  135  A    between atoms: _368  and  _369
REMARK  136  A    between atoms: _368  and  _371
REMARK  137  A    between atoms: _371  and  _372
REMARK  138  A    between atoms: _375  and  _377
REMARK  139  A    between atoms: _377  and  _378
REMARK  140  A    between atoms: _377  and  _380
REMARK  141  A    between atoms: _380  and  _381
REMARK  142  A    between atoms: _384  and  _386
REMARK  143  A    between atoms: _386  and  _387
REMARK  144  A    between atoms: _386  and  _389
REMARK  145  A    between atoms: _391  and  _393
REMARK  146  A    between atoms: _393  and  _394
REMARK  147  A    between atoms: _393  and  _396
REMARK  148  A    between atoms: _399  and  _401
REMARK  149  A    between atoms: _401  and  _402
REMARK  150  A    between atoms: _401  and  _404
REMARK  151  A    between atoms: _404  and  _405
REMARK  152  A    between atoms: _415  and  _417
REMARK  153  A    between atoms: _417  and  _418
REMARK  154  A    between atoms: _417  and  _420
REMARK  155  A    between atoms: _420  and  _421
REMARK  156  A    between atoms: _426  and  _428
REMARK  157  A    between atoms: _428  and  _429
REMARK  158  A    between atoms: _428  and  _431
REMARK  159  A    between atoms: _431  and  _432
REMARK  160  A    between atoms: _432  and  _433
REMARK  161  A    between atoms: _433  and  _434
REMARK                            x       y       z     vdW  Elec       q    Type
REMARK                         _______ _______ _______ _____ _____    ______ ____
ROOT
ATOM      1  O   HOH     1      -3.976   0.092  13.383  0.00  0.00    +0.000 OA
ENDROOT
TORSDOF 0
REMARK  Name = ../refined-set-2016/3sbi/3sbi_pocket.pdb
REMARK  161 active torsions:
REMARK  status: ('A' for Active; 'I' for Inactive)
REMARK    1  A    between atoms: _1  and  _3
REMARK    2  A    between atoms: _3  and  _4
REMARK    3  A    between atoms: _3  and  _6
REMARK    4  A    between atoms: _6  and  _7
REMARK    5  A    between atoms: _17  and  _19
REMARK    6  A    between atoms: _19  and  _20
REMARK    7  A    between atoms: _19  and  _22
REMARK    8  A    between atoms: _22  and  _23
REMARK    9  A    between atoms: _28  and  _29
REMARK   10  A    between atoms: _31  and  _33
REMARK   11  A    between atoms: _33  and  _34
REMARK   12  A    between atoms: _33  and  _36
REMARK   13  A    between atoms: _36  and  _37
REMARK   14  A    between atoms: _40  and  _41
REMARK   15  A    between atoms: _46  and  _48
REMARK   16  A    between atoms: _48  and  _49
REMARK   17  A    between atoms: _48  and  _51
REMARK   18  A    between atoms: _51  and  _52
REMARK   19  A    between atoms: _57  and  _59
REMARK   20  A    between atoms: _59  and  _60
REMARK   21  A    between atoms: _59  and  _62
REMARK   22  A    between atoms: _62  and  _63
REMARK   23  A    between atoms: _68  and  _70
REMARK   24  A    between atoms: _70  and  _71
REMARK   25  A    between atoms: _70  and  _73
REMARK   26  A    between atoms: _73  and  _74
REMARK   27  A    between atoms: _79  and  _81
REMARK   28  A    between atoms: _81  and  _82
REMARK   29  A    between atoms: _81  and  _84
REMARK   30  A    between atoms: _84  and  _85
REMARK   31  A    between atoms: _88  and  _90
REMARK   32  A    between atoms: _90  and  _91
REMARK   33  A    between atoms: _90  and  _93
REMARK   34  A    between atoms: _93  and  _94
REMARK   35  A    between atoms: _94  and  _95
REMARK   36  A    between atoms: _100  and  _102
REMARK   37  A    between atoms: _102  and  _103
REMARK   38  A    between atoms: _102  and  _105
REMARK   39  A    between atoms: _105  and  _106
REMARK   40  A    between atoms: _112  and  _114
REMARK   41  A    between atoms: _125  and  _128
REMARK   42  A    between atoms: _128  and  _129
REMARK   43  A    between atoms: _137  and  _138
REMARK   44  A    between atoms: _146  and  _148
REMARK   45  A    between atoms: _148  and  _149
REMARK   46  A    between atoms: _148  and  _151
REMARK   47  A    between atoms: _151  and  _152
REMARK   48  A    between atoms: _152  and  _153
REMARK   49  A    between atoms: _156  and  _158
REMARK   50  A    between atoms: _158  and  _159
REMARK   51  A    between atoms: _158  and  _161
REMARK   52  A    between atoms: _161  and  _162
REMARK   53  A    between atoms: _167  and  _169
REMARK   54  A    between atoms: _169  and  _170
REMARK   55  A    between atoms: _169  and  _172
REMARK   56  A    between atoms: _172  and  _173
REMARK   57  A    between atoms: _173  and  _174
REMARK   58  A    between atoms: _177  and  _179
REMARK   59  A    between atoms: _179  and  _180
REMARK   60  A    between atoms: _179  and  _182
REMARK   61  A    between atoms: _182  and  _183
REMARK   62  A    between atoms: _186  and  _188
REMARK   63  A    between atoms: _188  and  _189
REMARK   64  A    between atoms: _188  and  _191
REMARK   65  A    between atoms: _191  and  _192
REMARK   66  A    between atoms: _193  and  ZN_443
REMARK   67  A    between atoms: _197  and  _199
REMARK   68  A    between atoms: _199  and  _200
REMARK   69  A    between atoms: _199  and  _202
REMARK   70  A    between atoms: _202  and  _203
REMARK   71  A    between atoms: _206  and  _208
REMARK   72  A    between atoms: _208  and  _209
REMARK   73  A    between atoms: _208  and  _211
REMARK   74  A    between atoms: _214  and  _216
REMARK   75  A    between atoms: _216  and  _217
REMARK   76  A    between atoms: _216  and  _219
REMARK   77  A    between atoms: _219  and  _220
REMARK   78  A    between atoms: _225  and  _227
REMARK   79  A    between atoms: _227  and  _228
REMARK   80  A    between atoms: _227  and  _230
REMARK   81  A    between atoms: _230  and  _231
REMARK   82  A    between atoms: _237  and  _239
REMARK   83  A    between atoms: _239  and  _240
REMARK   84  A    between atoms: _242  and  _244
REMARK   85  A    between atoms: _244  and  _245
REMARK   86  A    between atoms: _244  and  _247
REMARK   87  A    between atoms: _247  and  _248
REMARK   88  A    between atoms: _248  and  _249
REMARK   89  A    between atoms: _249  and  _250
REMARK   90  A    between atoms: _250  and  _251
REMARK   91  A    between atoms: _255  and  _257
REMARK   92  A    between atoms: _257  and  _258
REMARK   93  A    between atoms: _257  and  _260
REMARK   94  A    between atoms: _263  and  _265
REMARK   95  A    between atoms: _265  and  _266
REMARK   96  A    between atoms: _265  and  _268
REMARK   97  A    between atoms: _268  and  _269
REMARK   98  A    between atoms: _269  and  _270
REMARK   99  A    between atoms: _275  and  _277
REMARK  100  A    between atoms: _277  and  _278
REMARK  101  A    between atoms: _277  and  _280
REMARK  102  A    between atoms: _280  and  _281
REMARK  103  A    between atoms: _284  and  _286
REMARK  104  A    between atoms: _286  and  _287
REMARK  105  A    between atoms: _290  and  _292
REMARK  106  A    between atoms: _292  and  _293
REMARK  107  A    between atoms: _292  and  _295
REMARK  108  A    between atoms: _298  and  _300
REMARK  109  A    between atoms: _300  and  _301
REMARK  110  A    between atoms: _300  and  _303
REMARK  111  A    between atoms: _303  and  _304
REMARK  112  A    between atoms: _307  and  _309
REMARK  113  A    between atoms: _309  and  _310
REMARK  114  A    between atoms: _312  and  _314
REMARK  115  A    between atoms: _314  and  _315
REMARK  116  A    between atoms: _317  and  _319
REMARK  117  A    between atoms: _319  and  _320
REMARK  118  A    between atoms: _319  and  _322
REMARK  119  A    between atoms: _322  and  _323
REMARK  120  A    between atoms: _325  and  _327
REMARK  121  A    between atoms: _327  and  _328
REMARK  122  A    between atoms: _327  and  _330
REMARK  123  A    between atoms: _330  and  _331
REMARK  124  A    between atoms: _334  and  _336
REMARK  125  A    between atoms: _336  and  _337
REMARK  126  A    between atoms: _336  and  _339
REMARK  127  A    between atoms: _339  and  _340
REMARK  128  A    between atoms: _343  and  _345
REMARK  129  A    between atoms: _345  and  _346
REMARK  130  A    between atoms: _345  and  _348
REMARK  131  A    between atoms: _348  and  _349
REMARK  132  A    between atoms: _353  and  _354
REMARK  133  A    between atoms: _360  and  _361
REMARK  134  A    between atoms: _366  and  _368
REMARK  135  A    between atoms: _368  and  _369
REMARK  136  A    between atoms: _368  and  _371
REMARK  137  A    between atoms: _371  and  _372
REMARK  138  A    between atoms: _375  and  _377
REMARK  139  A    between atoms: _377  and  _378
REMARK  140  A    between atoms: _377  and  _380
REMARK  141  A    between atoms: _380  and  _381
REMARK  142  A    between atoms: _384  and  _386
REMARK  143  A    between atoms: _386  and  _387
REMARK  144  A    between atoms: _386  and  _389
REMARK  145  A    between atoms: _391  and  _393
REMARK  146  A    between atoms: _393  and  _394
REMARK  147  A    between atoms: _393  and  _396
REMARK  148  A    between atoms: _399  and  _401
REMARK  149  A    between atoms: _401  and  _402
REMARK  150  A    between atoms: _401  and  _404
REMARK  151  A    between atoms: _404  and  _405
REMARK  152  A    between atoms: _415  and  _417
REMARK  153  A    between atoms: _417  and  _418
REMARK  154  A    between atoms: _417  and  _420
REMARK  155  A    between atoms: _420  and  _421
REMARK  156  A    between atoms: _426  and  _428
REMARK  157  A    between atoms: _428  and  _429
REMARK  158  A    between atoms: _428  and  _431
REMARK  159  A    between atoms: _431  and  _432
REMARK  160  A    between atoms: _432  and  _433
REMARK  161  A    between atoms: _433  and  _434
REMARK                            x       y       z     vdW  Elec       q    Type
REMARK                         _______ _______ _______ _____ _____    ______ ____
ROOT
ATOM      1  O   HOH     1      -8.234   7.347   8.268  0.00  0.00    +0.000 OA
ENDROOT
TORSDOF 0
REMARK  Name = ../refined-set-2016/3sbi/3sbi_pocket.pdb
REMARK  161 active torsions:
REMARK  status: ('A' for Active; 'I' for Inactive)
REMARK    1  A    between atoms: _1  and  _3
REMARK    2  A    between atoms: _3  and  _4
REMARK    3  A    between atoms: _3  and  _6
REMARK    4  A    between atoms: _6  and  _7
REMARK    5  A    between atoms: _17  and  _19
REMARK    6  A    between atoms: _19  and  _20
REMARK    7  A    between atoms: _19  and  _22
REMARK    8  A    between atoms: _22  and  _23
REMARK    9  A    between atoms: _28  and  _29
REMARK   10  A    between atoms: _31  and  _33
REMARK   11  A    between atoms: _33  and  _34
REMARK   12  A    between atoms: _33  and  _36
REMARK   13  A    between atoms: _36  and  _37
REMARK   14  A    between atoms: _40  and  _41
REMARK   15  A    between atoms: _46  and  _48
REMARK   16  A    between atoms: _48  and  _49
REMARK   17  A    between atoms: _48  and  _51
REMARK   18  A    between atoms: _51  and  _52
REMARK   19  A    between atoms: _57  and  _59
REMARK   20  A    between atoms: _59  and  _60
REMARK   21  A    between atoms: _59  and  _62
REMARK   22  A    between atoms: _62  and  _63
REMARK   23  A    between atoms: _68  and  _70
REMARK   24  A    between atoms: _70  and  _71
REMARK   25  A    between atoms: _70  and  _73
REMARK   26  A    between atoms: _73  and  _74
REMARK   27  A    between atoms: _79  and  _81
REMARK   28  A    between atoms: _81  and  _82
REMARK   29  A    between atoms: _81  and  _84
REMARK   30  A    between atoms: _84  and  _85
REMARK   31  A    between atoms: _88  and  _90
REMARK   32  A    between atoms: _90  and  _91
REMARK   33  A    between atoms: _90  and  _93
REMARK   34  A    between atoms: _93  and  _94
REMARK   35  A    between atoms: _94  and  _95
REMARK   36  A    between atoms: _100  and  _102
REMARK   37  A    between atoms: _102  and  _103
REMARK   38  A    between atoms: _102  and  _105
REMARK   39  A    between atoms: _105  and  _106
REMARK   40  A    between atoms: _112  and  _114
REMARK   41  A    between atoms: _125  and  _128
REMARK   42  A    between atoms: _128  and  _129
REMARK   43  A    between atoms: _137  and  _138
REMARK   44  A    between atoms: _146  and  _148
REMARK   45  A    between atoms: _148  and  _149
REMARK   46  A    between atoms: _148  and  _151
REMARK   47  A    between atoms: _151  and  _152
REMARK   48  A    between atoms: _152  and  _153
REMARK   49  A    between atoms: _156  and  _158
REMARK   50  A    between atoms: _158  and  _159
REMARK   51  A    between atoms: _158  and  _161
REMARK   52  A    between atoms: _161  and  _162
REMARK   53  A    between atoms: _167  and  _169
REMARK   54  A    between atoms: _169  and  _170
REMARK   55  A    between atoms: _169  and  _172
REMARK   56  A    between atoms: _172  and  _173
REMARK   57  A    between atoms: _173  and  _174
REMARK   58  A    between atoms: _177  and  _179
REMARK   59  A    between atoms: _179  and  _180
REMARK   60  A    between atoms: _179  and  _182
REMARK   61  A    between atoms: _182  and  _183
REMARK   62  A    between atoms: _186  and  _188
REMARK   63  A    between atoms: _188  and  _189
REMARK   64  A    between atoms: _188  and  _191
REMARK   65  A    between atoms: _191  and  _192
REMARK   66  A    between atoms: _193  and  ZN_443
REMARK   67  A    between atoms: _197  and  _199
REMARK   68  A    between atoms: _199  and  _200
REMARK   69  A    between atoms: _199  and  _202
REMARK   70  A    between atoms: _202  and  _203
REMARK   71  A    between atoms: _206  and  _208
REMARK   72  A    between atoms: _208  and  _209
REMARK   73  A    between atoms: _208  and  _211
REMARK   74  A    between atoms: _214  and  _216
REMARK   75  A    between atoms: _216  and  _217
REMARK   76  A    between atoms: _216  and  _219
REMARK   77  A    between atoms: _219  and  _220
REMARK   78  A    between atoms: _225  and  _227
REMARK   79  A    between atoms: _227  and  _228
REMARK   80  A    between atoms: _227  and  _230
REMARK   81  A    between atoms: _230  and  _231
REMARK   82  A    between atoms: _237  and  _239
REMARK   83  A    between atoms: _239  and  _240
REMARK   84  A    between atoms: _242  and  _244
REMARK   85  A    between atoms: _244  and  _245
REMARK   86  A    between atoms: _244  and  _247
REMARK   87  A    between atoms: _247  and  _248
REMARK   88  A    between atoms: _248  and  _249
REMARK   89  A    between atoms: _249  and  _250
REMARK   90  A    between atoms: _250  and  _251
REMARK   91  A    between atoms: _255  and  _257
REMARK   92  A    between atoms: _257  and  _258
REMARK   93  A    between atoms: _257  and  _260
REMARK   94  A    between atoms: _263  and  _265
REMARK   95  A    between atoms: _265  and  _266
REMARK   96  A    between atoms: _265  and  _268
REMARK   97  A    between atoms: _268  and  _269
REMARK   98  A    between atoms: _269  and  _270
REMARK   99  A    between atoms: _275  and  _277
REMARK  100  A    between atoms: _277  and  _278
REMARK  101  A    between atoms: _277  and  _280
REMARK  102  A    between atoms: _280  and  _281
REMARK  103  A    between atoms: _284  and  _286
REMARK  104  A    between atoms: _286  and  _287
REMARK  105  A    between atoms: _290  and  _292
REMARK  106  A    between atoms: _292  and  _293
REMARK  107  A    between atoms: _292  and  _295
REMARK  108  A    between atoms: _298  and  _300
REMARK  109  A    between atoms: _300  and  _301
REMARK  110  A    between atoms: _300  and  _303
REMARK  111  A    between atoms: _303  and  _304
REMARK  112  A    between atoms: _307  and  _309
REMARK  113  A    between atoms: _309  and  _310
REMARK  114  A    between atoms: _312  and  _314
REMARK  115  A    between atoms: _314  and  _315
REMARK  116  A    between atoms: _317  and  _319
REMARK  117  A    between atoms: _319  and  _320
REMARK  118  A    between atoms: _319  and  _322
REMARK  119  A    between atoms: _322  and  _323
REMARK  120  A    between atoms: _325  and  _327
REMARK  121  A    between atoms: _327  and  _328
REMARK  122  A    between atoms: _327  and  _330
REMARK  123  A    between atoms: _330  and  _331
REMARK  124  A    between atoms: _334  and  _336
REMARK  125  A    between atoms: _336  and  _337
REMARK  126  A    between atoms: _336  and  _339
REMARK  127  A    between atoms: _339  and  _340
REMARK  128  A    between atoms: _343  and  _345
REMARK  129  A    between atoms: _345  and  _346
REMARK  130  A    between atoms: _345  and  _348
REMARK  131  A    between atoms: _348  and  _349
REMARK  132  A    between atoms: _353  and  _354
REMARK  133  A    between atoms: _360  and  _361
REMARK  134  A    between atoms: _366  and  _368
REMARK  135  A    between atoms: _368  and  _369
REMARK  136  A    between atoms: _368  and  _371
REMARK  137  A    between atoms: _371  and  _372
REMARK  138  A    between atoms: _375  and  _377
REMARK  139  A    between atoms: _377  and  _378
REMARK  140  A    between atoms: _377  and  _380
REMARK  141  A    between atoms: _380  and  _381
REMARK  142  A    between atoms: _384  and  _386
REMARK  143  A    between atoms: _386  and  _387
REMARK  144  A    between atoms: _386  and  _389
REMARK  145  A    between atoms: _391  and  _393
REMARK  146  A    between atoms: _393  and  _394
REMARK  147  A    between atoms: _393  and  _396
REMARK  148  A    between atoms: _399  and  _401
REMARK  149  A    between atoms: _401  and  _402
REMARK  150  A    between atoms: _401  and  _404
REMARK  151  A    between atoms: _404  and  _405
REMARK  152  A    between atoms: _415  and  _417
REMARK  153  A    between atoms: _417  and  _418
REMARK  154  A    between atoms: _417  and  _420
REMARK  155  A    between atoms: _420  and  _421
REMARK  156  A    between atoms: _426  and  _428
REMARK  157  A    between atoms: _428  and  _429
REMARK  158  A    between atoms: _428  and  _431
REMARK  159  A    between atoms: _431  and  _432
REMARK  160  A    between atoms: _432  and  _433
REMARK  161  A    between atoms: _433  and  _434
REMARK                            x       y       z     vdW  Elec       q    Type
REMARK                         _______ _______ _______ _____ _____    ______ ____
ROOT
ATOM      1  O   HOH     1      -5.521   1.791  11.383  0.00  0.00    +0.000 OA
ENDROOT
TORSDOF 0
